====================================================
******************* SCALE SIM **********************
====================================================
Array Size:    32 x 32
SRAM IFMAP:    524288
SRAM Filter:   524288
SRAM OFMAP:    262144
CSV file path: /home/farabi/study/research/multitree-sim/src/SCALE-Sim/topologies/conv_nets/alexnet.csv
Dataflow:      os
====================================================


Model loading ...
Model loading finished

NN model size: 3745824 parameters

Start a training epoch ...

Feed-Forward ...

Commencing run for Conv1
Average utilization : 99.01294875160897 %
Cycles for compute  : 100219 cycles

Commencing run for Conv2
Average utilization : 99.98285915714837 %
Cycles for compute  : 24729631 cycles

Commencing run for Conv3
Average utilization : 94.49764769758549 %
Cycles for compute  : 110623 cycles

Commencing run for Conv4
Average utilization : 94.50884637232626 %
Cycles for compute  : 165919 cycles

Commencing run for Conv5
Average utilization : 94.49764769758549 %
Cycles for compute  : 110623 cycles

Backward Propagation ...

Commencing back-propagation run for Conv5
 - compute input-gradient:
 -- input-gradient: read cycles: 165919, write cycles: 2068
 - compute filter-gradient:
 -- filter-gradient: read cycles: 104575, write cycles: 104390
 - input-gradient-cycles: 165919, uitl: 88.00110577299766 %
 - filter-gradent-cycles: 104575, uitl: 99.9601661486971 %
Average utilization : 92.6245678046463 %
Cycles for compute  : 270494 cycles


Commencing back-propagation run for Conv4
 - compute input-gradient:
 -- input-gradient: read cycles: 248863, write cycles: 2068
 - compute filter-gradient:
 -- filter-gradient: read cycles: 156847, write cycles: 156538
 - input-gradient-cycles: 248863, uitl: 88.00768080731164 %
 - filter-gradent-cycles: 156847, uitl: 99.97344147481303 %
Average utilization : 92.63362954758325 %
Cycles for compute  : 405710 cycles


Commencing back-propagation run for Conv3
 - compute input-gradient:
 -- input-gradient: read cycles: 165919, write cycles: 1392
 - compute filter-gradient:
 -- filter-gradient: read cycles: 104575, write cycles: 104266
 - input-gradient-cycles: 165919, uitl: 88.00110577299766 %
 - filter-gradent-cycles: 104575, uitl: 99.9601661486971 %
Average utilization : 92.6245678046463 %
Cycles for compute  : 270494 cycles


Commencing back-propagation run for Conv2
 - compute input-gradient:
 -- input-gradient: read cycles: 25728031, write cycles: 128651
 - compute filter-gradient:
 -- filter-gradient: read cycles: 24725431, write cycles: 24725246
 - input-gradient-cycles: 25728031, uitl: 99.92756411042492 %
 - filter-gradent-cycles: 24725431, uitl: 99.99983152467595 %
Average utilization : 99.9629797765414 %
Cycles for compute  : 50453462 cycles


Commencing back-propagation run for Conv1
 - compute input-gradient:
 -- input-gradient: read cycles: 18213919, write cycles: 189791
 - compute filter-gradient:
 -- filter-gradient: read cycles: 104986, write cycles: 104998
 - input-gradient-cycles: 18213919, uitl: 9.374976537517817 %
 - filter-gradent-cycles: 104998, uitl: 94.51696610143257 %
Average utilization : 9.86292693173391 %
Cycles for compute  : 18318917 cycles

0 | HMC-8 | starts training, computation state: training, communication state: idle
0 | HMC-7 | starts training, computation state: training, communication state: idle
0 | HMC-14 | starts training, computation state: training, communication state: idle
0 | HMC-6 | starts training, computation state: training, communication state: idle
0 | HMC-4 | starts training, computation state: training, communication state: idle
0 | HMC-5 | starts training, computation state: training, communication state: idle
0 | HMC-13 | starts training, computation state: training, communication state: idle
0 | HMC-2 | starts training, computation state: training, communication state: idle
0 | HMC-3 | starts training, computation state: training, communication state: idle
0 | HMC-15 | starts training, computation state: training, communication state: idle
0 | HMC-9 | starts training, computation state: training, communication state: idle
0 | HMC-12 | starts training, computation state: training, communication state: idle
0 | HMC-0 | starts training, computation state: training, communication state: idle
0 | HMC-1 | starts training, computation state: training, communication state: idle
0 | HMC-10 | starts training, computation state: training, communication state: idle
0 | HMC-11 | starts training, computation state: training, communication state: idle
94936092 | HMC-14 finishes training, computation sate: idle, communication state: idle
94936092 | HMC-7 finishes training, computation sate: idle, communication state: idle
94936092 | HMC-0 finishes training, computation sate: idle, communication state: idle
94936092 | HMC-1 finishes training, computation sate: idle, communication state: idle
94936092 | HMC-6 finishes training, computation sate: idle, communication state: idle
94936092 | HMC-4 finishes training, computation sate: idle, communication state: idle
94936092 | HMC-5 finishes training, computation sate: idle, communication state: idle
94936092 | HMC-13 finishes training, computation sate: idle, communication state: idle
94936092 | HMC-2 finishes training, computation sate: idle, communication state: idle
94936092 | HMC-3 finishes training, computation sate: idle, communication state: idle
94936092 | HMC-9 finishes training, computation sate: idle, communication state: idle
94936092 | HMC-12 finishes training, computation sate: idle, communication state: idle
94936092 | HMC-15 finishes training, computation sate: idle, communication state: idle
94936092 | HMC-8 finishes training, computation sate: idle, communication state: idle
94936092 | HMC-10 finishes training, computation sate: idle, communication state: idle
94936092 | HMC-11 finishes training, computation sate: idle, communication state: idle
94936093 | HMC-8 | starts aggregation, computation state: aggregating, communication state: idle
94936093 | HMC-14 | starts aggregation, computation state: aggregating, communication state: idle
94936093 | HMC-7 | starts aggregation, computation state: aggregating, communication state: idle
94936093 | HMC-6 | starts aggregation, computation state: aggregating, communication state: idle
94936093 | HMC-4 | starts aggregation, computation state: aggregating, communication state: idle
94936093 | HMC-5 | starts aggregation, computation state: aggregating, communication state: idle
94936093 | HMC-13 | starts aggregation, computation state: aggregating, communication state: idle
94936093 | HMC-2 | starts aggregation, computation state: aggregating, communication state: idle
94936093 | HMC-3 | starts aggregation, computation state: aggregating, communication state: idle
94936093 | HMC-15 | starts aggregation, computation state: aggregating, communication state: idle
94936093 | HMC-9 | starts aggregation, computation state: aggregating, communication state: idle
94936093 | HMC-12 | starts aggregation, computation state: aggregating, communication state: idle
94936093 | HMC-0 | starts aggregation, computation state: aggregating, communication state: idle
94936093 | HMC-1 | starts aggregation, computation state: aggregating, communication state: idle
94936093 | HMC-10 | starts aggregation, computation state: aggregating, communication state: idle
94936093 | HMC-11 | starts aggregation, computation state: aggregating, communication state: idle
95053165 | HMC-14 | finishes aggregation , computation state: idle, communication state: reduce-scatter
95053165 | HMC-7 | finishes aggregation , computation state: idle, communication state: reduce-scatter
95053165 | HMC-0 | finishes aggregation , computation state: idle, communication state: reduce-scatter
95053165 | HMC-1 | finishes aggregation , computation state: idle, communication state: reduce-scatter
95053165 | HMC-6 | finishes aggregation , computation state: idle, communication state: reduce-scatter
95053165 | HMC-4 | finishes aggregation , computation state: idle, communication state: reduce-scatter
95053165 | HMC-5 | finishes aggregation , computation state: idle, communication state: reduce-scatter
95053165 | HMC-13 | finishes aggregation , computation state: idle, communication state: reduce-scatter
95053165 | HMC-2 | finishes aggregation , computation state: idle, communication state: reduce-scatter
95053165 | HMC-3 | finishes aggregation , computation state: idle, communication state: reduce-scatter
95053165 | HMC-9 | finishes aggregation , computation state: idle, communication state: reduce-scatter
95053165 | HMC-12 | finishes aggregation , computation state: idle, communication state: reduce-scatter
95053165 | HMC-15 | finishes aggregation , computation state: idle, communication state: reduce-scatter
95053165 | HMC-8 | finishes aggregation , computation state: idle, communication state: reduce-scatter
95053165 | HMC-10 | finishes aggregation , computation state: idle, communication state: reduce-scatter
95053165 | HMC-11 | finishes aggregation , computation state: idle, communication state: reduce-scatter
95053166 | HMC-8 | start reducing for flow 4 (from NI 0) to parent HMC-12 (to NI 0) at timestep 0
95053166 | HMC-14 | start reducing for flow 10 (from NI 0) to parent HMC-15 (to NI 0) at timestep 0
95053166 | HMC-7 | start reducing for flow 11 (from NI 0) to parent HMC-3 (to NI 0) at timestep 0
95053166 | HMC-6 | start reducing for flow 5 (from NI 0) to parent HMC-10 (to NI 0) at timestep 0
95053166 | HMC-4 | start reducing for flow 0 (from NI 0) to parent HMC-8 (to NI 0) at timestep 0
95053166 | HMC-5 | start reducing for flow 9 (from NI 0) to parent HMC-6 (to NI 0) at timestep 0
95053166 | HMC-13 | start reducing for flow 12 (from NI 0) to parent HMC-9 (to NI 0) at timestep 0
95053166 | HMC-2 | start reducing for flow 3 (from NI 0) to parent HMC-1 (to NI 0) at timestep 0
95053166 | HMC-3 | start reducing for flow 7 (from NI 0) to parent HMC-2 (to NI 0) at timestep 0
95053166 | HMC-15 | start reducing for flow 14 (from NI 0) to parent HMC-11 (to NI 0) at timestep 0
95053166 | HMC-9 | start reducing for flow 13 (from NI 0) to parent HMC-5 (to NI 0) at timestep 0
95053166 | HMC-12 | start reducing for flow 8 (from NI 0) to parent HMC-13 (to NI 0) at timestep 0
95053166 | HMC-0 | start reducing for flow 1 (from NI 0) to parent HMC-4 (to NI 0) at timestep 0
95053166 | HMC-1 | start reducing for flow 2 (from NI 0) to parent HMC-0 (to NI 0) at timestep 0
95053166 | HMC-10 | start reducing for flow 6 (from NI 0) to parent HMC-14 (to NI 0) at timestep 0
95053166 | HMC-11 | start reducing for flow 15 (from NI 0) to parent HMC-7 (to NI 0) at timestep 0
95114476 | HMC-7 | finishes reducing for flow 11 (from NI 0) to parent HMC-3 (to NI 0) at timestep 0
95114476 | HMC-14 | finishes reducing for flow 10 (from NI 0) to parent HMC-15 (to NI 0) at timestep 0
95114476 | HMC-6 | finishes reducing for flow 5 (from NI 0) to parent HMC-10 (to NI 0) at timestep 0
95114476 | HMC-4 | finishes reducing for flow 0 (from NI 0) to parent HMC-8 (to NI 0) at timestep 0
95114476 | HMC-5 | finishes reducing for flow 9 (from NI 0) to parent HMC-6 (to NI 0) at timestep 0
95114476 | HMC-13 | finishes reducing for flow 12 (from NI 0) to parent HMC-9 (to NI 0) at timestep 0
95114476 | HMC-2 | finishes reducing for flow 3 (from NI 0) to parent HMC-1 (to NI 0) at timestep 0
95114476 | HMC-3 | finishes reducing for flow 7 (from NI 0) to parent HMC-2 (to NI 0) at timestep 0
95114476 | HMC-15 | finishes reducing for flow 14 (from NI 0) to parent HMC-11 (to NI 0) at timestep 0
95114476 | HMC-9 | finishes reducing for flow 13 (from NI 0) to parent HMC-5 (to NI 0) at timestep 0
95114476 | HMC-12 | finishes reducing for flow 8 (from NI 0) to parent HMC-13 (to NI 0) at timestep 0
95114476 | HMC-0 | finishes reducing for flow 1 (from NI 0) to parent HMC-4 (to NI 0) at timestep 0
95114476 | HMC-1 | finishes reducing for flow 2 (from NI 0) to parent HMC-0 (to NI 0) at timestep 0
95114476 | HMC-10 | finishes reducing for flow 6 (from NI 0) to parent HMC-14 (to NI 0) at timestep 0
95114476 | HMC-11 | finishes reducing for flow 15 (from NI 0) to parent HMC-7 (to NI 0) at timestep 0
95114477 | HMC-8 | finishes reducing for flow 4 (from NI 0) to parent HMC-12 (to NI 0) at timestep 0
95115530 | HMC-8 | receives full reduce for flow 0 from child HMC-4
95115530 | HMC-7 | receives full reduce for flow 15 from child HMC-11
95115530 | HMC-14 | receives full reduce for flow 6 from child HMC-10
95115530 | HMC-6 | receives full reduce for flow 9 from child HMC-5
95115530 | HMC-4 | receives full reduce for flow 1 from child HMC-0
95115530 | HMC-5 | receives full reduce for flow 13 from child HMC-9
95115530 | HMC-13 | receives full reduce for flow 8 from child HMC-12
95115530 | HMC-2 | receives full reduce for flow 7 from child HMC-3
95115530 | HMC-3 | receives full reduce for flow 11 from child HMC-7
95115530 | HMC-15 | receives full reduce for flow 10 from child HMC-14
95115530 | HMC-9 | receives full reduce for flow 12 from child HMC-13
95115530 | HMC-12 | receives full reduce for flow 4 from child HMC-8
95115530 | HMC-0 | receives full reduce for flow 2 from child HMC-1
95115530 | HMC-1 | receives full reduce for flow 3 from child HMC-2
95115530 | HMC-10 | receives full reduce for flow 5 from child HMC-6
95115530 | HMC-11 | receives full reduce for flow 14 from child HMC-15
95115531 | HMC-14 | starts aggregation, computation state: aggregating, communication state: reduce-scatter
95115531 | HMC-7 | starts aggregation, computation state: aggregating, communication state: reduce-scatter
95115531 | HMC-0 | starts aggregation, computation state: aggregating, communication state: reduce-scatter
95115531 | HMC-1 | starts aggregation, computation state: aggregating, communication state: reduce-scatter
95115531 | HMC-6 | starts aggregation, computation state: aggregating, communication state: reduce-scatter
95115531 | HMC-4 | starts aggregation, computation state: aggregating, communication state: reduce-scatter
95115531 | HMC-5 | starts aggregation, computation state: aggregating, communication state: reduce-scatter
95115531 | HMC-13 | starts aggregation, computation state: aggregating, communication state: reduce-scatter
95115531 | HMC-2 | starts aggregation, computation state: aggregating, communication state: reduce-scatter
95115531 | HMC-3 | starts aggregation, computation state: aggregating, communication state: reduce-scatter
95115531 | HMC-9 | starts aggregation, computation state: aggregating, communication state: reduce-scatter
95115531 | HMC-12 | starts aggregation, computation state: aggregating, communication state: reduce-scatter
95115531 | HMC-15 | starts aggregation, computation state: aggregating, communication state: reduce-scatter
95115531 | HMC-8 | starts aggregation, computation state: aggregating, communication state: reduce-scatter
95115531 | HMC-10 | starts aggregation, computation state: aggregating, communication state: reduce-scatter
95115531 | HMC-11 | starts aggregation, computation state: aggregating, communication state: reduce-scatter
95122859 | HMC-8 | clear pending aggregation for flow 0 from child HMC-4
95122859 | HMC-8 | finishes aggregation , computation state: idle, communication state: reduce-scatter
95122859 | HMC-14 | clear pending aggregation for flow 6 from child HMC-10
95122859 | HMC-14 | finishes aggregation , computation state: idle, communication state: reduce-scatter
95122859 | HMC-7 | clear pending aggregation for flow 15 from child HMC-11
95122859 | HMC-7 | finishes aggregation , computation state: idle, communication state: reduce-scatter
95122859 | HMC-6 | clear pending aggregation for flow 9 from child HMC-5
95122859 | HMC-6 | finishes aggregation , computation state: idle, communication state: reduce-scatter
95122859 | HMC-4 | clear pending aggregation for flow 1 from child HMC-0
95122859 | HMC-4 | finishes aggregation , computation state: idle, communication state: reduce-scatter
95122859 | HMC-5 | clear pending aggregation for flow 13 from child HMC-9
95122859 | HMC-5 | finishes aggregation , computation state: idle, communication state: reduce-scatter
95122859 | HMC-13 | clear pending aggregation for flow 8 from child HMC-12
95122859 | HMC-13 | finishes aggregation , computation state: idle, communication state: reduce-scatter
95122859 | HMC-2 | clear pending aggregation for flow 7 from child HMC-3
95122859 | HMC-2 | finishes aggregation , computation state: idle, communication state: reduce-scatter
95122859 | HMC-3 | clear pending aggregation for flow 11 from child HMC-7
95122859 | HMC-3 | finishes aggregation , computation state: idle, communication state: reduce-scatter
95122859 | HMC-15 | clear pending aggregation for flow 10 from child HMC-14
95122859 | HMC-15 | finishes aggregation , computation state: idle, communication state: reduce-scatter
95122859 | HMC-9 | clear pending aggregation for flow 12 from child HMC-13
95122859 | HMC-9 | finishes aggregation , computation state: idle, communication state: reduce-scatter
95122859 | HMC-12 | clear pending aggregation for flow 4 from child HMC-8
95122859 | HMC-12 | finishes aggregation , computation state: idle, communication state: reduce-scatter
95122859 | HMC-0 | clear pending aggregation for flow 2 from child HMC-1
95122859 | HMC-0 | finishes aggregation , computation state: idle, communication state: reduce-scatter
95122859 | HMC-1 | clear pending aggregation for flow 3 from child HMC-2
95122859 | HMC-1 | finishes aggregation , computation state: idle, communication state: reduce-scatter
95122859 | HMC-10 | clear pending aggregation for flow 5 from child HMC-6
95122859 | HMC-10 | finishes aggregation , computation state: idle, communication state: reduce-scatter
95122859 | HMC-11 | clear pending aggregation for flow 14 from child HMC-15
95122859 | HMC-11 | finishes aggregation , computation state: idle, communication state: reduce-scatter
95122860 | HMC-14 | start reducing for flow 6 (from NI 0) to parent HMC-15 (to NI 0) at timestep 1
95122860 | HMC-7 | start reducing for flow 15 (from NI 0) to parent HMC-3 (to NI 0) at timestep 1
95122860 | HMC-0 | start reducing for flow 2 (from NI 0) to parent HMC-4 (to NI 0) at timestep 1
95122860 | HMC-1 | start reducing for flow 3 (from NI 0) to parent HMC-0 (to NI 0) at timestep 1
95122860 | HMC-6 | start reducing for flow 9 (from NI 0) to parent HMC-10 (to NI 0) at timestep 1
95122860 | HMC-4 | start reducing for flow 1 (from NI 0) to parent HMC-8 (to NI 0) at timestep 1
95122860 | HMC-5 | start reducing for flow 13 (from NI 0) to parent HMC-6 (to NI 0) at timestep 1
95122860 | HMC-13 | start reducing for flow 8 (from NI 0) to parent HMC-9 (to NI 0) at timestep 1
95122860 | HMC-2 | start reducing for flow 7 (from NI 0) to parent HMC-1 (to NI 0) at timestep 1
95122860 | HMC-3 | start reducing for flow 11 (from NI 0) to parent HMC-2 (to NI 0) at timestep 1
95122860 | HMC-9 | start reducing for flow 12 (from NI 0) to parent HMC-5 (to NI 0) at timestep 1
95122860 | HMC-12 | start reducing for flow 4 (from NI 0) to parent HMC-13 (to NI 0) at timestep 1
95122860 | HMC-15 | start reducing for flow 10 (from NI 0) to parent HMC-11 (to NI 0) at timestep 1
95122860 | HMC-8 | start reducing for flow 0 (from NI 0) to parent HMC-12 (to NI 0) at timestep 1
95122860 | HMC-10 | start reducing for flow 5 (from NI 0) to parent HMC-14 (to NI 0) at timestep 1
95122860 | HMC-11 | start reducing for flow 14 (from NI 0) to parent HMC-7 (to NI 0) at timestep 1
95184170 | HMC-7 | finishes reducing for flow 15 (from NI 0) to parent HMC-3 (to NI 0) at timestep 1
95184170 | HMC-14 | finishes reducing for flow 6 (from NI 0) to parent HMC-15 (to NI 0) at timestep 1
95184170 | HMC-1 | finishes reducing for flow 3 (from NI 0) to parent HMC-0 (to NI 0) at timestep 1
95184170 | HMC-6 | finishes reducing for flow 9 (from NI 0) to parent HMC-10 (to NI 0) at timestep 1
95184170 | HMC-4 | finishes reducing for flow 1 (from NI 0) to parent HMC-8 (to NI 0) at timestep 1
95184170 | HMC-5 | finishes reducing for flow 13 (from NI 0) to parent HMC-6 (to NI 0) at timestep 1
95184170 | HMC-13 | finishes reducing for flow 8 (from NI 0) to parent HMC-9 (to NI 0) at timestep 1
95184170 | HMC-2 | finishes reducing for flow 7 (from NI 0) to parent HMC-1 (to NI 0) at timestep 1
95184170 | HMC-3 | finishes reducing for flow 11 (from NI 0) to parent HMC-2 (to NI 0) at timestep 1
95184170 | HMC-15 | finishes reducing for flow 10 (from NI 0) to parent HMC-11 (to NI 0) at timestep 1
95184170 | HMC-9 | finishes reducing for flow 12 (from NI 0) to parent HMC-5 (to NI 0) at timestep 1
95184170 | HMC-12 | finishes reducing for flow 4 (from NI 0) to parent HMC-13 (to NI 0) at timestep 1
95184170 | HMC-0 | finishes reducing for flow 2 (from NI 0) to parent HMC-4 (to NI 0) at timestep 1
95184170 | HMC-8 | finishes reducing for flow 0 (from NI 0) to parent HMC-12 (to NI 0) at timestep 1
95184170 | HMC-10 | finishes reducing for flow 5 (from NI 0) to parent HMC-14 (to NI 0) at timestep 1
95184170 | HMC-11 | finishes reducing for flow 14 (from NI 0) to parent HMC-7 (to NI 0) at timestep 1
95185224 | HMC-8 | receives full reduce for flow 1 from child HMC-4
95185224 | HMC-7 | receives full reduce for flow 14 from child HMC-11
95185224 | HMC-14 | receives full reduce for flow 5 from child HMC-10
95185224 | HMC-6 | receives full reduce for flow 13 from child HMC-5
95185224 | HMC-4 | receives full reduce for flow 2 from child HMC-0
95185224 | HMC-5 | receives full reduce for flow 12 from child HMC-9
95185224 | HMC-13 | receives full reduce for flow 4 from child HMC-12
95185224 | HMC-2 | receives full reduce for flow 11 from child HMC-3
95185224 | HMC-3 | receives full reduce for flow 15 from child HMC-7
95185224 | HMC-15 | receives full reduce for flow 6 from child HMC-14
95185224 | HMC-9 | receives full reduce for flow 8 from child HMC-13
95185224 | HMC-12 | receives full reduce for flow 0 from child HMC-8
95185224 | HMC-0 | receives full reduce for flow 3 from child HMC-1
95185224 | HMC-1 | receives full reduce for flow 7 from child HMC-2
95185224 | HMC-10 | receives full reduce for flow 9 from child HMC-6
95185224 | HMC-11 | receives full reduce for flow 10 from child HMC-15
95185225 | HMC-14 | starts aggregation, computation state: aggregating, communication state: reduce-scatter
95185225 | HMC-7 | starts aggregation, computation state: aggregating, communication state: reduce-scatter
95185225 | HMC-0 | starts aggregation, computation state: aggregating, communication state: reduce-scatter
95185225 | HMC-1 | starts aggregation, computation state: aggregating, communication state: reduce-scatter
95185225 | HMC-6 | starts aggregation, computation state: aggregating, communication state: reduce-scatter
95185225 | HMC-4 | starts aggregation, computation state: aggregating, communication state: reduce-scatter
95185225 | HMC-5 | starts aggregation, computation state: aggregating, communication state: reduce-scatter
95185225 | HMC-13 | starts aggregation, computation state: aggregating, communication state: reduce-scatter
95185225 | HMC-2 | starts aggregation, computation state: aggregating, communication state: reduce-scatter
95185225 | HMC-3 | starts aggregation, computation state: aggregating, communication state: reduce-scatter
95185225 | HMC-9 | starts aggregation, computation state: aggregating, communication state: reduce-scatter
95185225 | HMC-12 | starts aggregation, computation state: aggregating, communication state: reduce-scatter
95185225 | HMC-15 | starts aggregation, computation state: aggregating, communication state: reduce-scatter
95185225 | HMC-8 | starts aggregation, computation state: aggregating, communication state: reduce-scatter
95185225 | HMC-10 | starts aggregation, computation state: aggregating, communication state: reduce-scatter
95185225 | HMC-11 | starts aggregation, computation state: aggregating, communication state: reduce-scatter
95192553 | HMC-8 | clear pending aggregation for flow 1 from child HMC-4
95192553 | HMC-8 | finishes aggregation , computation state: idle, communication state: reduce-scatter
95192553 | HMC-14 | clear pending aggregation for flow 5 from child HMC-10
95192553 | HMC-14 | finishes aggregation , computation state: idle, communication state: reduce-scatter
95192553 | HMC-7 | clear pending aggregation for flow 14 from child HMC-11
95192553 | HMC-7 | finishes aggregation , computation state: idle, communication state: reduce-scatter
95192553 | HMC-6 | clear pending aggregation for flow 13 from child HMC-5
95192553 | HMC-6 | finishes aggregation , computation state: idle, communication state: reduce-scatter
95192553 | HMC-4 | clear pending aggregation for flow 2 from child HMC-0
95192553 | HMC-4 | finishes aggregation , computation state: idle, communication state: reduce-scatter
95192553 | HMC-5 | clear pending aggregation for flow 12 from child HMC-9
95192553 | HMC-5 | finishes aggregation , computation state: idle, communication state: reduce-scatter
95192553 | HMC-13 | clear pending aggregation for flow 4 from child HMC-12
95192553 | HMC-13 | finishes aggregation , computation state: idle, communication state: reduce-scatter
95192553 | HMC-2 | clear pending aggregation for flow 11 from child HMC-3
95192553 | HMC-2 | finishes aggregation , computation state: idle, communication state: reduce-scatter
95192553 | HMC-3 | clear pending aggregation for flow 15 from child HMC-7
95192553 | HMC-3 | finishes aggregation , computation state: idle, communication state: reduce-scatter
95192553 | HMC-15 | clear pending aggregation for flow 6 from child HMC-14
95192553 | HMC-15 | finishes aggregation , computation state: idle, communication state: reduce-scatter
95192553 | HMC-9 | clear pending aggregation for flow 8 from child HMC-13
95192553 | HMC-9 | finishes aggregation , computation state: idle, communication state: reduce-scatter
95192553 | HMC-12 | clear pending aggregation for flow 0 from child HMC-8
95192553 | HMC-12 | finishes aggregation , computation state: idle, communication state: reduce-scatter
95192553 | HMC-0 | clear pending aggregation for flow 3 from child HMC-1
95192553 | HMC-0 | finishes aggregation , computation state: idle, communication state: reduce-scatter
95192553 | HMC-1 | clear pending aggregation for flow 7 from child HMC-2
95192553 | HMC-1 | finishes aggregation , computation state: idle, communication state: reduce-scatter
95192553 | HMC-10 | clear pending aggregation for flow 9 from child HMC-6
95192553 | HMC-10 | finishes aggregation , computation state: idle, communication state: reduce-scatter
95192553 | HMC-11 | clear pending aggregation for flow 10 from child HMC-15
95192553 | HMC-11 | finishes aggregation , computation state: idle, communication state: reduce-scatter
95192554 | HMC-14 | start reducing for flow 5 (from NI 0) to parent HMC-15 (to NI 0) at timestep 2
95192554 | HMC-7 | start reducing for flow 14 (from NI 0) to parent HMC-3 (to NI 0) at timestep 2
95192554 | HMC-0 | start reducing for flow 3 (from NI 0) to parent HMC-4 (to NI 0) at timestep 2
95192554 | HMC-1 | start reducing for flow 7 (from NI 0) to parent HMC-0 (to NI 0) at timestep 2
95192554 | HMC-6 | start reducing for flow 13 (from NI 0) to parent HMC-10 (to NI 0) at timestep 2
95192554 | HMC-4 | start reducing for flow 2 (from NI 0) to parent HMC-8 (to NI 0) at timestep 2
95192554 | HMC-5 | start reducing for flow 12 (from NI 0) to parent HMC-6 (to NI 0) at timestep 2
95192554 | HMC-13 | start reducing for flow 4 (from NI 0) to parent HMC-9 (to NI 0) at timestep 2
95192554 | HMC-2 | start reducing for flow 11 (from NI 0) to parent HMC-1 (to NI 0) at timestep 2
95192554 | HMC-3 | start reducing for flow 15 (from NI 0) to parent HMC-2 (to NI 0) at timestep 2
95192554 | HMC-9 | start reducing for flow 8 (from NI 0) to parent HMC-5 (to NI 0) at timestep 2
95192554 | HMC-12 | start reducing for flow 0 (from NI 0) to parent HMC-13 (to NI 0) at timestep 2
95192554 | HMC-15 | start reducing for flow 6 (from NI 0) to parent HMC-11 (to NI 0) at timestep 2
95192554 | HMC-8 | start reducing for flow 1 (from NI 0) to parent HMC-12 (to NI 0) at timestep 2
95192554 | HMC-10 | start reducing for flow 9 (from NI 0) to parent HMC-14 (to NI 0) at timestep 2
95192554 | HMC-11 | start reducing for flow 10 (from NI 0) to parent HMC-7 (to NI 0) at timestep 2
95253864 | HMC-7 | finishes reducing for flow 14 (from NI 0) to parent HMC-3 (to NI 0) at timestep 2
95253864 | HMC-14 | finishes reducing for flow 5 (from NI 0) to parent HMC-15 (to NI 0) at timestep 2
95253864 | HMC-1 | finishes reducing for flow 7 (from NI 0) to parent HMC-0 (to NI 0) at timestep 2
95253864 | HMC-6 | finishes reducing for flow 13 (from NI 0) to parent HMC-10 (to NI 0) at timestep 2
95253864 | HMC-4 | finishes reducing for flow 2 (from NI 0) to parent HMC-8 (to NI 0) at timestep 2
95253864 | HMC-5 | finishes reducing for flow 12 (from NI 0) to parent HMC-6 (to NI 0) at timestep 2
95253864 | HMC-13 | finishes reducing for flow 4 (from NI 0) to parent HMC-9 (to NI 0) at timestep 2
95253864 | HMC-2 | finishes reducing for flow 11 (from NI 0) to parent HMC-1 (to NI 0) at timestep 2
95253864 | HMC-3 | finishes reducing for flow 15 (from NI 0) to parent HMC-2 (to NI 0) at timestep 2
95253864 | HMC-15 | finishes reducing for flow 6 (from NI 0) to parent HMC-11 (to NI 0) at timestep 2
95253864 | HMC-9 | finishes reducing for flow 8 (from NI 0) to parent HMC-5 (to NI 0) at timestep 2
95253864 | HMC-12 | finishes reducing for flow 0 (from NI 0) to parent HMC-13 (to NI 0) at timestep 2
95253864 | HMC-0 | finishes reducing for flow 3 (from NI 0) to parent HMC-4 (to NI 0) at timestep 2
95253864 | HMC-8 | finishes reducing for flow 1 (from NI 0) to parent HMC-12 (to NI 0) at timestep 2
95253864 | HMC-10 | finishes reducing for flow 9 (from NI 0) to parent HMC-14 (to NI 0) at timestep 2
95253864 | HMC-11 | finishes reducing for flow 10 (from NI 0) to parent HMC-7 (to NI 0) at timestep 2
95254918 | HMC-8 | receives full reduce for flow 2 from child HMC-4
95254918 | HMC-7 | receives full reduce for flow 10 from child HMC-11
95254918 | HMC-14 | receives full reduce for flow 9 from child HMC-10
95254918 | HMC-6 | receives full reduce for flow 12 from child HMC-5
95254918 | HMC-4 | receives full reduce for flow 3 from child HMC-0
95254918 | HMC-5 | receives full reduce for flow 8 from child HMC-9
95254918 | HMC-13 | receives full reduce for flow 0 from child HMC-12
95254918 | HMC-2 | receives full reduce for flow 15 from child HMC-3
95254918 | HMC-3 | receives full reduce for flow 14 from child HMC-7
95254918 | HMC-15 | receives full reduce for flow 5 from child HMC-14
95254918 | HMC-9 | receives full reduce for flow 4 from child HMC-13
95254918 | HMC-12 | receives full reduce for flow 1 from child HMC-8
95254918 | HMC-0 | receives full reduce for flow 7 from child HMC-1
95254918 | HMC-1 | receives full reduce for flow 11 from child HMC-2
95254918 | HMC-10 | receives full reduce for flow 13 from child HMC-6
95254918 | HMC-11 | receives full reduce for flow 6 from child HMC-15
95254919 | HMC-14 | starts aggregation, computation state: aggregating, communication state: reduce-scatter
95254919 | HMC-7 | starts aggregation, computation state: aggregating, communication state: reduce-scatter
95254919 | HMC-0 | starts aggregation, computation state: aggregating, communication state: reduce-scatter
95254919 | HMC-1 | starts aggregation, computation state: aggregating, communication state: reduce-scatter
95254919 | HMC-6 | starts aggregation, computation state: aggregating, communication state: reduce-scatter
95254919 | HMC-4 | starts aggregation, computation state: aggregating, communication state: reduce-scatter
95254919 | HMC-5 | starts aggregation, computation state: aggregating, communication state: reduce-scatter
95254919 | HMC-13 | starts aggregation, computation state: aggregating, communication state: reduce-scatter
95254919 | HMC-2 | starts aggregation, computation state: aggregating, communication state: reduce-scatter
95254919 | HMC-3 | starts aggregation, computation state: aggregating, communication state: reduce-scatter
95254919 | HMC-9 | starts aggregation, computation state: aggregating, communication state: reduce-scatter
95254919 | HMC-12 | starts aggregation, computation state: aggregating, communication state: reduce-scatter
95254919 | HMC-15 | starts aggregation, computation state: aggregating, communication state: reduce-scatter
95254919 | HMC-8 | starts aggregation, computation state: aggregating, communication state: reduce-scatter
95254919 | HMC-10 | starts aggregation, computation state: aggregating, communication state: reduce-scatter
95254919 | HMC-11 | starts aggregation, computation state: aggregating, communication state: reduce-scatter
95262247 | HMC-8 | clear pending aggregation for flow 2 from child HMC-4
95262247 | HMC-8 | finishes aggregation , computation state: idle, communication state: reduce-scatter
95262247 | HMC-14 | clear pending aggregation for flow 9 from child HMC-10
95262247 | HMC-14 | finishes aggregation , computation state: idle, communication state: reduce-scatter
95262247 | HMC-7 | clear pending aggregation for flow 10 from child HMC-11
95262247 | HMC-7 | finishes aggregation , computation state: idle, communication state: reduce-scatter
95262247 | HMC-6 | clear pending aggregation for flow 12 from child HMC-5
95262247 | HMC-6 | finishes aggregation , computation state: idle, communication state: reduce-scatter
95262247 | HMC-4 | clear pending aggregation for flow 3 from child HMC-0
95262247 | HMC-4 | finishes aggregation , computation state: idle, communication state: reduce-scatter
95262247 | HMC-5 | clear pending aggregation for flow 8 from child HMC-9
95262247 | HMC-5 | finishes aggregation , computation state: idle, communication state: reduce-scatter
95262247 | HMC-13 | clear pending aggregation for flow 0 from child HMC-12
95262247 | HMC-13 | finishes aggregation , computation state: idle, communication state: reduce-scatter
95262247 | HMC-2 | clear pending aggregation for flow 15 from child HMC-3
95262247 | HMC-2 | finishes aggregation , computation state: idle, communication state: reduce-scatter
95262247 | HMC-3 | clear pending aggregation for flow 14 from child HMC-7
95262247 | HMC-3 | finishes aggregation , computation state: idle, communication state: reduce-scatter
95262247 | HMC-15 | clear pending aggregation for flow 5 from child HMC-14
95262247 | HMC-15 | finishes aggregation , computation state: idle, communication state: reduce-scatter
95262247 | HMC-9 | clear pending aggregation for flow 4 from child HMC-13
95262247 | HMC-9 | finishes aggregation , computation state: idle, communication state: reduce-scatter
95262247 | HMC-12 | clear pending aggregation for flow 1 from child HMC-8
95262247 | HMC-12 | finishes aggregation , computation state: idle, communication state: reduce-scatter
95262247 | HMC-0 | clear pending aggregation for flow 7 from child HMC-1
95262247 | HMC-0 | finishes aggregation , computation state: idle, communication state: reduce-scatter
95262247 | HMC-1 | clear pending aggregation for flow 11 from child HMC-2
95262247 | HMC-1 | finishes aggregation , computation state: idle, communication state: reduce-scatter
95262247 | HMC-10 | clear pending aggregation for flow 13 from child HMC-6
95262247 | HMC-10 | finishes aggregation , computation state: idle, communication state: reduce-scatter
95262247 | HMC-11 | clear pending aggregation for flow 6 from child HMC-15
95262247 | HMC-11 | finishes aggregation , computation state: idle, communication state: reduce-scatter
95262248 | HMC-14 | start reducing for flow 9 (from NI 0) to parent HMC-15 (to NI 0) at timestep 3
95262248 | HMC-7 | start reducing for flow 10 (from NI 0) to parent HMC-3 (to NI 0) at timestep 3
95262248 | HMC-0 | start reducing for flow 7 (from NI 0) to parent HMC-4 (to NI 0) at timestep 3
95262248 | HMC-1 | start reducing for flow 11 (from NI 0) to parent HMC-0 (to NI 0) at timestep 3
95262248 | HMC-6 | start reducing for flow 12 (from NI 0) to parent HMC-10 (to NI 0) at timestep 3
95262248 | HMC-4 | start reducing for flow 3 (from NI 0) to parent HMC-8 (to NI 0) at timestep 3
95262248 | HMC-5 | start reducing for flow 8 (from NI 0) to parent HMC-6 (to NI 0) at timestep 3
95262248 | HMC-13 | start reducing for flow 0 (from NI 0) to parent HMC-9 (to NI 0) at timestep 3
95262248 | HMC-2 | start reducing for flow 15 (from NI 0) to parent HMC-1 (to NI 0) at timestep 3
95262248 | HMC-3 | start reducing for flow 14 (from NI 0) to parent HMC-2 (to NI 0) at timestep 3
95262248 | HMC-9 | start reducing for flow 4 (from NI 0) to parent HMC-5 (to NI 0) at timestep 3
95262248 | HMC-12 | start reducing for flow 1 (from NI 0) to parent HMC-13 (to NI 0) at timestep 3
95262248 | HMC-15 | start reducing for flow 5 (from NI 0) to parent HMC-11 (to NI 0) at timestep 3
95262248 | HMC-8 | start reducing for flow 2 (from NI 0) to parent HMC-12 (to NI 0) at timestep 3
95262248 | HMC-10 | start reducing for flow 13 (from NI 0) to parent HMC-14 (to NI 0) at timestep 3
95262248 | HMC-11 | start reducing for flow 6 (from NI 0) to parent HMC-7 (to NI 0) at timestep 3
95323558 | HMC-7 | finishes reducing for flow 10 (from NI 0) to parent HMC-3 (to NI 0) at timestep 3
95323558 | HMC-14 | finishes reducing for flow 9 (from NI 0) to parent HMC-15 (to NI 0) at timestep 3
95323558 | HMC-1 | finishes reducing for flow 11 (from NI 0) to parent HMC-0 (to NI 0) at timestep 3
95323558 | HMC-6 | finishes reducing for flow 12 (from NI 0) to parent HMC-10 (to NI 0) at timestep 3
95323558 | HMC-4 | finishes reducing for flow 3 (from NI 0) to parent HMC-8 (to NI 0) at timestep 3
95323558 | HMC-5 | finishes reducing for flow 8 (from NI 0) to parent HMC-6 (to NI 0) at timestep 3
95323558 | HMC-13 | finishes reducing for flow 0 (from NI 0) to parent HMC-9 (to NI 0) at timestep 3
95323558 | HMC-2 | finishes reducing for flow 15 (from NI 0) to parent HMC-1 (to NI 0) at timestep 3
95323558 | HMC-3 | finishes reducing for flow 14 (from NI 0) to parent HMC-2 (to NI 0) at timestep 3
95323558 | HMC-15 | finishes reducing for flow 5 (from NI 0) to parent HMC-11 (to NI 0) at timestep 3
95323558 | HMC-9 | finishes reducing for flow 4 (from NI 0) to parent HMC-5 (to NI 0) at timestep 3
95323558 | HMC-12 | finishes reducing for flow 1 (from NI 0) to parent HMC-13 (to NI 0) at timestep 3
95323558 | HMC-0 | finishes reducing for flow 7 (from NI 0) to parent HMC-4 (to NI 0) at timestep 3
95323558 | HMC-8 | finishes reducing for flow 2 (from NI 0) to parent HMC-12 (to NI 0) at timestep 3
95323558 | HMC-10 | finishes reducing for flow 13 (from NI 0) to parent HMC-14 (to NI 0) at timestep 3
95323558 | HMC-11 | finishes reducing for flow 6 (from NI 0) to parent HMC-7 (to NI 0) at timestep 3
95324612 | HMC-8 | receives full reduce for flow 3 from child HMC-4
95324612 | HMC-7 | receives full reduce for flow 6 from child HMC-11
95324612 | HMC-14 | receives full reduce for flow 13 from child HMC-10
95324612 | HMC-6 | receives full reduce for flow 8 from child HMC-5
95324612 | HMC-4 | receives full reduce for flow 7 from child HMC-0
95324612 | HMC-5 | receives full reduce for flow 4 from child HMC-9
95324612 | HMC-13 | receives full reduce for flow 1 from child HMC-12
95324612 | HMC-2 | receives full reduce for flow 14 from child HMC-3
95324612 | HMC-3 | receives full reduce for flow 10 from child HMC-7
95324612 | HMC-15 | receives full reduce for flow 9 from child HMC-14
95324612 | HMC-9 | receives full reduce for flow 0 from child HMC-13
95324612 | HMC-12 | receives full reduce for flow 2 from child HMC-8
95324612 | HMC-0 | receives full reduce for flow 11 from child HMC-1
95324612 | HMC-1 | receives full reduce for flow 15 from child HMC-2
95324612 | HMC-10 | receives full reduce for flow 12 from child HMC-6
95324612 | HMC-11 | receives full reduce for flow 5 from child HMC-15
95324613 | HMC-14 | starts aggregation, computation state: aggregating, communication state: reduce-scatter
95324613 | HMC-7 | starts aggregation, computation state: aggregating, communication state: reduce-scatter
95324613 | HMC-0 | starts aggregation, computation state: aggregating, communication state: reduce-scatter
95324613 | HMC-1 | starts aggregation, computation state: aggregating, communication state: reduce-scatter
95324613 | HMC-6 | starts aggregation, computation state: aggregating, communication state: reduce-scatter
95324613 | HMC-4 | starts aggregation, computation state: aggregating, communication state: reduce-scatter
95324613 | HMC-5 | starts aggregation, computation state: aggregating, communication state: reduce-scatter
95324613 | HMC-13 | starts aggregation, computation state: aggregating, communication state: reduce-scatter
95324613 | HMC-2 | starts aggregation, computation state: aggregating, communication state: reduce-scatter
95324613 | HMC-3 | starts aggregation, computation state: aggregating, communication state: reduce-scatter
95324613 | HMC-9 | starts aggregation, computation state: aggregating, communication state: reduce-scatter
95324613 | HMC-12 | starts aggregation, computation state: aggregating, communication state: reduce-scatter
95324613 | HMC-15 | starts aggregation, computation state: aggregating, communication state: reduce-scatter
95324613 | HMC-8 | starts aggregation, computation state: aggregating, communication state: reduce-scatter
95324613 | HMC-10 | starts aggregation, computation state: aggregating, communication state: reduce-scatter
95324613 | HMC-11 | starts aggregation, computation state: aggregating, communication state: reduce-scatter
95331941 | HMC-8 | clear pending aggregation for flow 3 from child HMC-4
95331941 | HMC-8 | finishes aggregation , computation state: idle, communication state: reduce-scatter
95331941 | HMC-14 | clear pending aggregation for flow 13 from child HMC-10
95331941 | HMC-14 | finishes aggregation , computation state: idle, communication state: reduce-scatter
95331941 | HMC-7 | clear pending aggregation for flow 6 from child HMC-11
95331941 | HMC-7 | finishes aggregation , computation state: idle, communication state: reduce-scatter
95331941 | HMC-6 | clear pending aggregation for flow 8 from child HMC-5
95331941 | HMC-6 | finishes aggregation , computation state: idle, communication state: reduce-scatter
95331941 | HMC-4 | clear pending aggregation for flow 7 from child HMC-0
95331941 | HMC-4 | finishes aggregation , computation state: idle, communication state: reduce-scatter
95331941 | HMC-5 | clear pending aggregation for flow 4 from child HMC-9
95331941 | HMC-5 | finishes aggregation , computation state: idle, communication state: reduce-scatter
95331941 | HMC-13 | clear pending aggregation for flow 1 from child HMC-12
95331941 | HMC-13 | finishes aggregation , computation state: idle, communication state: reduce-scatter
95331941 | HMC-2 | clear pending aggregation for flow 14 from child HMC-3
95331941 | HMC-2 | finishes aggregation , computation state: idle, communication state: reduce-scatter
95331941 | HMC-3 | clear pending aggregation for flow 10 from child HMC-7
95331941 | HMC-3 | finishes aggregation , computation state: idle, communication state: reduce-scatter
95331941 | HMC-15 | clear pending aggregation for flow 9 from child HMC-14
95331941 | HMC-15 | finishes aggregation , computation state: idle, communication state: reduce-scatter
95331941 | HMC-9 | clear pending aggregation for flow 0 from child HMC-13
95331941 | HMC-9 | finishes aggregation , computation state: idle, communication state: reduce-scatter
95331941 | HMC-12 | clear pending aggregation for flow 2 from child HMC-8
95331941 | HMC-12 | finishes aggregation , computation state: idle, communication state: reduce-scatter
95331941 | HMC-0 | clear pending aggregation for flow 11 from child HMC-1
95331941 | HMC-0 | finishes aggregation , computation state: idle, communication state: reduce-scatter
95331941 | HMC-1 | clear pending aggregation for flow 15 from child HMC-2
95331941 | HMC-1 | finishes aggregation , computation state: idle, communication state: reduce-scatter
95331941 | HMC-10 | clear pending aggregation for flow 12 from child HMC-6
95331941 | HMC-10 | finishes aggregation , computation state: idle, communication state: reduce-scatter
95331941 | HMC-11 | clear pending aggregation for flow 5 from child HMC-15
95331941 | HMC-11 | finishes aggregation , computation state: idle, communication state: reduce-scatter
95331942 | HMC-14 | start reducing for flow 13 (from NI 0) to parent HMC-15 (to NI 0) at timestep 4
95331942 | HMC-7 | start reducing for flow 6 (from NI 0) to parent HMC-3 (to NI 0) at timestep 4
95331942 | HMC-0 | start reducing for flow 11 (from NI 0) to parent HMC-4 (to NI 0) at timestep 4
95331942 | HMC-1 | start reducing for flow 15 (from NI 0) to parent HMC-0 (to NI 0) at timestep 4
95331942 | HMC-6 | start reducing for flow 8 (from NI 0) to parent HMC-10 (to NI 0) at timestep 4
95331942 | HMC-4 | start reducing for flow 7 (from NI 0) to parent HMC-8 (to NI 0) at timestep 4
95331942 | HMC-5 | start reducing for flow 4 (from NI 0) to parent HMC-6 (to NI 0) at timestep 4
95331942 | HMC-13 | start reducing for flow 1 (from NI 0) to parent HMC-9 (to NI 0) at timestep 4
95331942 | HMC-2 | start reducing for flow 14 (from NI 0) to parent HMC-1 (to NI 0) at timestep 4
95331942 | HMC-3 | start reducing for flow 10 (from NI 0) to parent HMC-2 (to NI 0) at timestep 4
95331942 | HMC-9 | start reducing for flow 0 (from NI 0) to parent HMC-5 (to NI 0) at timestep 4
95331942 | HMC-12 | start reducing for flow 2 (from NI 0) to parent HMC-13 (to NI 0) at timestep 4
95331942 | HMC-15 | start reducing for flow 9 (from NI 0) to parent HMC-11 (to NI 0) at timestep 4
95331942 | HMC-8 | start reducing for flow 3 (from NI 0) to parent HMC-12 (to NI 0) at timestep 4
95331942 | HMC-10 | start reducing for flow 12 (from NI 0) to parent HMC-14 (to NI 0) at timestep 4
95331942 | HMC-11 | start reducing for flow 5 (from NI 0) to parent HMC-7 (to NI 0) at timestep 4
95393252 | HMC-7 | finishes reducing for flow 6 (from NI 0) to parent HMC-3 (to NI 0) at timestep 4
95393252 | HMC-14 | finishes reducing for flow 13 (from NI 0) to parent HMC-15 (to NI 0) at timestep 4
95393252 | HMC-1 | finishes reducing for flow 15 (from NI 0) to parent HMC-0 (to NI 0) at timestep 4
95393252 | HMC-6 | finishes reducing for flow 8 (from NI 0) to parent HMC-10 (to NI 0) at timestep 4
95393252 | HMC-4 | finishes reducing for flow 7 (from NI 0) to parent HMC-8 (to NI 0) at timestep 4
95393252 | HMC-5 | finishes reducing for flow 4 (from NI 0) to parent HMC-6 (to NI 0) at timestep 4
95393252 | HMC-13 | finishes reducing for flow 1 (from NI 0) to parent HMC-9 (to NI 0) at timestep 4
95393252 | HMC-2 | finishes reducing for flow 14 (from NI 0) to parent HMC-1 (to NI 0) at timestep 4
95393252 | HMC-3 | finishes reducing for flow 10 (from NI 0) to parent HMC-2 (to NI 0) at timestep 4
95393252 | HMC-15 | finishes reducing for flow 9 (from NI 0) to parent HMC-11 (to NI 0) at timestep 4
95393252 | HMC-9 | finishes reducing for flow 0 (from NI 0) to parent HMC-5 (to NI 0) at timestep 4
95393252 | HMC-12 | finishes reducing for flow 2 (from NI 0) to parent HMC-13 (to NI 0) at timestep 4
95393252 | HMC-0 | finishes reducing for flow 11 (from NI 0) to parent HMC-4 (to NI 0) at timestep 4
95393252 | HMC-8 | finishes reducing for flow 3 (from NI 0) to parent HMC-12 (to NI 0) at timestep 4
95393252 | HMC-10 | finishes reducing for flow 12 (from NI 0) to parent HMC-14 (to NI 0) at timestep 4
95393252 | HMC-11 | finishes reducing for flow 5 (from NI 0) to parent HMC-7 (to NI 0) at timestep 4
95394306 | HMC-8 | receives full reduce for flow 7 from child HMC-4
95394306 | HMC-7 | receives full reduce for flow 5 from child HMC-11
95394306 | HMC-14 | receives full reduce for flow 12 from child HMC-10
95394306 | HMC-6 | receives full reduce for flow 4 from child HMC-5
95394306 | HMC-4 | receives full reduce for flow 11 from child HMC-0
95394306 | HMC-5 | receives full reduce for flow 0 from child HMC-9
95394306 | HMC-13 | receives full reduce for flow 2 from child HMC-12
95394306 | HMC-2 | receives full reduce for flow 10 from child HMC-3
95394306 | HMC-3 | receives full reduce for flow 6 from child HMC-7
95394306 | HMC-15 | receives full reduce for flow 13 from child HMC-14
95394306 | HMC-9 | receives full reduce for flow 1 from child HMC-13
95394306 | HMC-12 | receives full reduce for flow 3 from child HMC-8
95394306 | HMC-0 | receives full reduce for flow 15 from child HMC-1
95394306 | HMC-1 | receives full reduce for flow 14 from child HMC-2
95394306 | HMC-10 | receives full reduce for flow 8 from child HMC-6
95394306 | HMC-11 | receives full reduce for flow 9 from child HMC-15
95394307 | HMC-14 | starts aggregation, computation state: aggregating, communication state: reduce-scatter
95394307 | HMC-7 | starts aggregation, computation state: aggregating, communication state: reduce-scatter
95394307 | HMC-0 | starts aggregation, computation state: aggregating, communication state: reduce-scatter
95394307 | HMC-1 | starts aggregation, computation state: aggregating, communication state: reduce-scatter
95394307 | HMC-6 | starts aggregation, computation state: aggregating, communication state: reduce-scatter
95394307 | HMC-4 | starts aggregation, computation state: aggregating, communication state: reduce-scatter
95394307 | HMC-5 | starts aggregation, computation state: aggregating, communication state: reduce-scatter
95394307 | HMC-13 | starts aggregation, computation state: aggregating, communication state: reduce-scatter
95394307 | HMC-2 | starts aggregation, computation state: aggregating, communication state: reduce-scatter
95394307 | HMC-3 | starts aggregation, computation state: aggregating, communication state: reduce-scatter
95394307 | HMC-9 | starts aggregation, computation state: aggregating, communication state: reduce-scatter
95394307 | HMC-12 | starts aggregation, computation state: aggregating, communication state: reduce-scatter
95394307 | HMC-15 | starts aggregation, computation state: aggregating, communication state: reduce-scatter
95394307 | HMC-8 | starts aggregation, computation state: aggregating, communication state: reduce-scatter
95394307 | HMC-10 | starts aggregation, computation state: aggregating, communication state: reduce-scatter
95394307 | HMC-11 | starts aggregation, computation state: aggregating, communication state: reduce-scatter
95401635 | HMC-8 | clear pending aggregation for flow 7 from child HMC-4
95401635 | HMC-8 | finishes aggregation , computation state: idle, communication state: reduce-scatter
95401635 | HMC-14 | clear pending aggregation for flow 12 from child HMC-10
95401635 | HMC-14 | finishes aggregation , computation state: idle, communication state: reduce-scatter
95401635 | HMC-7 | clear pending aggregation for flow 5 from child HMC-11
95401635 | HMC-7 | finishes aggregation , computation state: idle, communication state: reduce-scatter
95401635 | HMC-6 | clear pending aggregation for flow 4 from child HMC-5
95401635 | HMC-6 | finishes aggregation , computation state: idle, communication state: reduce-scatter
95401635 | HMC-4 | clear pending aggregation for flow 11 from child HMC-0
95401635 | HMC-4 | finishes aggregation , computation state: idle, communication state: reduce-scatter
95401635 | HMC-5 | clear pending aggregation for flow 0 from child HMC-9
95401635 | HMC-5 | finishes aggregation , computation state: idle, communication state: reduce-scatter
95401635 | HMC-13 | clear pending aggregation for flow 2 from child HMC-12
95401635 | HMC-13 | finishes aggregation , computation state: idle, communication state: reduce-scatter
95401635 | HMC-2 | clear pending aggregation for flow 10 from child HMC-3
95401635 | HMC-2 | finishes aggregation , computation state: idle, communication state: reduce-scatter
95401635 | HMC-3 | clear pending aggregation for flow 6 from child HMC-7
95401635 | HMC-3 | finishes aggregation , computation state: idle, communication state: reduce-scatter
95401635 | HMC-15 | clear pending aggregation for flow 13 from child HMC-14
95401635 | HMC-15 | finishes aggregation , computation state: idle, communication state: reduce-scatter
95401635 | HMC-9 | clear pending aggregation for flow 1 from child HMC-13
95401635 | HMC-9 | finishes aggregation , computation state: idle, communication state: reduce-scatter
95401635 | HMC-12 | clear pending aggregation for flow 3 from child HMC-8
95401635 | HMC-12 | finishes aggregation , computation state: idle, communication state: reduce-scatter
95401635 | HMC-0 | clear pending aggregation for flow 15 from child HMC-1
95401635 | HMC-0 | finishes aggregation , computation state: idle, communication state: reduce-scatter
95401635 | HMC-1 | clear pending aggregation for flow 14 from child HMC-2
95401635 | HMC-1 | finishes aggregation , computation state: idle, communication state: reduce-scatter
95401635 | HMC-10 | clear pending aggregation for flow 8 from child HMC-6
95401635 | HMC-10 | finishes aggregation , computation state: idle, communication state: reduce-scatter
95401635 | HMC-11 | clear pending aggregation for flow 9 from child HMC-15
95401635 | HMC-11 | finishes aggregation , computation state: idle, communication state: reduce-scatter
95401636 | HMC-14 | start reducing for flow 12 (from NI 0) to parent HMC-15 (to NI 0) at timestep 5
95401636 | HMC-7 | start reducing for flow 5 (from NI 0) to parent HMC-3 (to NI 0) at timestep 5
95401636 | HMC-0 | start reducing for flow 15 (from NI 0) to parent HMC-4 (to NI 0) at timestep 5
95401636 | HMC-1 | start reducing for flow 14 (from NI 0) to parent HMC-0 (to NI 0) at timestep 5
95401636 | HMC-6 | start reducing for flow 4 (from NI 0) to parent HMC-10 (to NI 0) at timestep 5
95401636 | HMC-4 | start reducing for flow 11 (from NI 0) to parent HMC-8 (to NI 0) at timestep 5
95401636 | HMC-5 | start reducing for flow 0 (from NI 0) to parent HMC-6 (to NI 0) at timestep 5
95401636 | HMC-13 | start reducing for flow 2 (from NI 0) to parent HMC-9 (to NI 0) at timestep 5
95401636 | HMC-2 | start reducing for flow 10 (from NI 0) to parent HMC-1 (to NI 0) at timestep 5
95401636 | HMC-3 | start reducing for flow 6 (from NI 0) to parent HMC-2 (to NI 0) at timestep 5
95401636 | HMC-9 | start reducing for flow 1 (from NI 0) to parent HMC-5 (to NI 0) at timestep 5
95401636 | HMC-12 | start reducing for flow 3 (from NI 0) to parent HMC-13 (to NI 0) at timestep 5
95401636 | HMC-15 | start reducing for flow 13 (from NI 0) to parent HMC-11 (to NI 0) at timestep 5
95401636 | HMC-8 | start reducing for flow 7 (from NI 0) to parent HMC-12 (to NI 0) at timestep 5
95401636 | HMC-10 | start reducing for flow 8 (from NI 0) to parent HMC-14 (to NI 0) at timestep 5
95401636 | HMC-11 | start reducing for flow 9 (from NI 0) to parent HMC-7 (to NI 0) at timestep 5
95462946 | HMC-7 | finishes reducing for flow 5 (from NI 0) to parent HMC-3 (to NI 0) at timestep 5
95462946 | HMC-14 | finishes reducing for flow 12 (from NI 0) to parent HMC-15 (to NI 0) at timestep 5
95462946 | HMC-1 | finishes reducing for flow 14 (from NI 0) to parent HMC-0 (to NI 0) at timestep 5
95462946 | HMC-6 | finishes reducing for flow 4 (from NI 0) to parent HMC-10 (to NI 0) at timestep 5
95462946 | HMC-4 | finishes reducing for flow 11 (from NI 0) to parent HMC-8 (to NI 0) at timestep 5
95462946 | HMC-5 | finishes reducing for flow 0 (from NI 0) to parent HMC-6 (to NI 0) at timestep 5
95462946 | HMC-13 | finishes reducing for flow 2 (from NI 0) to parent HMC-9 (to NI 0) at timestep 5
95462946 | HMC-2 | finishes reducing for flow 10 (from NI 0) to parent HMC-1 (to NI 0) at timestep 5
95462946 | HMC-3 | finishes reducing for flow 6 (from NI 0) to parent HMC-2 (to NI 0) at timestep 5
95462946 | HMC-15 | finishes reducing for flow 13 (from NI 0) to parent HMC-11 (to NI 0) at timestep 5
95462946 | HMC-9 | finishes reducing for flow 1 (from NI 0) to parent HMC-5 (to NI 0) at timestep 5
95462946 | HMC-12 | finishes reducing for flow 3 (from NI 0) to parent HMC-13 (to NI 0) at timestep 5
95462946 | HMC-0 | finishes reducing for flow 15 (from NI 0) to parent HMC-4 (to NI 0) at timestep 5
95462946 | HMC-8 | finishes reducing for flow 7 (from NI 0) to parent HMC-12 (to NI 0) at timestep 5
95462946 | HMC-10 | finishes reducing for flow 8 (from NI 0) to parent HMC-14 (to NI 0) at timestep 5
95462946 | HMC-11 | finishes reducing for flow 9 (from NI 0) to parent HMC-7 (to NI 0) at timestep 5
95464000 | HMC-8 | receives full reduce for flow 11 from child HMC-4
95464000 | HMC-7 | receives full reduce for flow 9 from child HMC-11
95464000 | HMC-14 | receives full reduce for flow 8 from child HMC-10
95464000 | HMC-6 | receives full reduce for flow 0 from child HMC-5
95464000 | HMC-4 | receives full reduce for flow 15 from child HMC-0
95464000 | HMC-5 | receives full reduce for flow 1 from child HMC-9
95464000 | HMC-13 | receives full reduce for flow 3 from child HMC-12
95464000 | HMC-2 | receives full reduce for flow 6 from child HMC-3
95464000 | HMC-3 | receives full reduce for flow 5 from child HMC-7
95464000 | HMC-15 | receives full reduce for flow 12 from child HMC-14
95464000 | HMC-9 | receives full reduce for flow 2 from child HMC-13
95464000 | HMC-12 | receives full reduce for flow 7 from child HMC-8
95464000 | HMC-0 | receives full reduce for flow 14 from child HMC-1
95464000 | HMC-1 | receives full reduce for flow 10 from child HMC-2
95464000 | HMC-10 | receives full reduce for flow 4 from child HMC-6
95464000 | HMC-11 | receives full reduce for flow 13 from child HMC-15
95464001 | HMC-14 | starts aggregation, computation state: aggregating, communication state: reduce-scatter
95464001 | HMC-7 | starts aggregation, computation state: aggregating, communication state: reduce-scatter
95464001 | HMC-0 | starts aggregation, computation state: aggregating, communication state: reduce-scatter
95464001 | HMC-1 | starts aggregation, computation state: aggregating, communication state: reduce-scatter
95464001 | HMC-6 | starts aggregation, computation state: aggregating, communication state: reduce-scatter
95464001 | HMC-4 | starts aggregation, computation state: aggregating, communication state: reduce-scatter
95464001 | HMC-5 | starts aggregation, computation state: aggregating, communication state: reduce-scatter
95464001 | HMC-13 | starts aggregation, computation state: aggregating, communication state: reduce-scatter
95464001 | HMC-2 | starts aggregation, computation state: aggregating, communication state: reduce-scatter
95464001 | HMC-3 | starts aggregation, computation state: aggregating, communication state: reduce-scatter
95464001 | HMC-9 | starts aggregation, computation state: aggregating, communication state: reduce-scatter
95464001 | HMC-12 | starts aggregation, computation state: aggregating, communication state: reduce-scatter
95464001 | HMC-15 | starts aggregation, computation state: aggregating, communication state: reduce-scatter
95464001 | HMC-8 | starts aggregation, computation state: aggregating, communication state: reduce-scatter
95464001 | HMC-10 | starts aggregation, computation state: aggregating, communication state: reduce-scatter
95464001 | HMC-11 | starts aggregation, computation state: aggregating, communication state: reduce-scatter
95471329 | HMC-8 | clear pending aggregation for flow 11 from child HMC-4
95471329 | HMC-8 | finishes aggregation , computation state: idle, communication state: reduce-scatter
95471329 | HMC-14 | clear pending aggregation for flow 8 from child HMC-10
95471329 | HMC-14 | finishes aggregation , computation state: idle, communication state: reduce-scatter
95471329 | HMC-7 | clear pending aggregation for flow 9 from child HMC-11
95471329 | HMC-7 | finishes aggregation , computation state: idle, communication state: reduce-scatter
95471329 | HMC-6 | clear pending aggregation for flow 0 from child HMC-5
95471329 | HMC-6 | finishes aggregation , computation state: idle, communication state: reduce-scatter
95471329 | HMC-4 | clear pending aggregation for flow 15 from child HMC-0
95471329 | HMC-4 | finishes aggregation , computation state: idle, communication state: reduce-scatter
95471329 | HMC-5 | clear pending aggregation for flow 1 from child HMC-9
95471329 | HMC-5 | finishes aggregation , computation state: idle, communication state: reduce-scatter
95471329 | HMC-13 | clear pending aggregation for flow 3 from child HMC-12
95471329 | HMC-13 | finishes aggregation , computation state: idle, communication state: reduce-scatter
95471329 | HMC-2 | clear pending aggregation for flow 6 from child HMC-3
95471329 | HMC-2 | finishes aggregation , computation state: idle, communication state: reduce-scatter
95471329 | HMC-3 | clear pending aggregation for flow 5 from child HMC-7
95471329 | HMC-3 | finishes aggregation , computation state: idle, communication state: reduce-scatter
95471329 | HMC-15 | clear pending aggregation for flow 12 from child HMC-14
95471329 | HMC-15 | finishes aggregation , computation state: idle, communication state: reduce-scatter
95471329 | HMC-9 | clear pending aggregation for flow 2 from child HMC-13
95471329 | HMC-9 | finishes aggregation , computation state: idle, communication state: reduce-scatter
95471329 | HMC-12 | clear pending aggregation for flow 7 from child HMC-8
95471329 | HMC-12 | finishes aggregation , computation state: idle, communication state: reduce-scatter
95471329 | HMC-0 | clear pending aggregation for flow 14 from child HMC-1
95471329 | HMC-0 | finishes aggregation , computation state: idle, communication state: reduce-scatter
95471329 | HMC-1 | clear pending aggregation for flow 10 from child HMC-2
95471329 | HMC-1 | finishes aggregation , computation state: idle, communication state: reduce-scatter
95471329 | HMC-10 | clear pending aggregation for flow 4 from child HMC-6
95471329 | HMC-10 | finishes aggregation , computation state: idle, communication state: reduce-scatter
95471329 | HMC-11 | clear pending aggregation for flow 13 from child HMC-15
95471329 | HMC-11 | finishes aggregation , computation state: idle, communication state: reduce-scatter
95471330 | HMC-14 | start reducing for flow 8 (from NI 0) to parent HMC-15 (to NI 0) at timestep 6
95471330 | HMC-7 | start reducing for flow 9 (from NI 0) to parent HMC-3 (to NI 0) at timestep 6
95471330 | HMC-0 | start reducing for flow 14 (from NI 0) to parent HMC-4 (to NI 0) at timestep 6
95471330 | HMC-1 | start reducing for flow 10 (from NI 0) to parent HMC-0 (to NI 0) at timestep 6
95471330 | HMC-6 | start reducing for flow 0 (from NI 0) to parent HMC-10 (to NI 0) at timestep 6
95471330 | HMC-4 | start reducing for flow 15 (from NI 0) to parent HMC-8 (to NI 0) at timestep 6
95471330 | HMC-5 | start reducing for flow 1 (from NI 0) to parent HMC-6 (to NI 0) at timestep 6
95471330 | HMC-13 | start reducing for flow 3 (from NI 0) to parent HMC-9 (to NI 0) at timestep 6
95471330 | HMC-2 | start reducing for flow 6 (from NI 0) to parent HMC-1 (to NI 0) at timestep 6
95471330 | HMC-3 | start reducing for flow 5 (from NI 0) to parent HMC-2 (to NI 0) at timestep 6
95471330 | HMC-9 | start reducing for flow 2 (from NI 0) to parent HMC-5 (to NI 0) at timestep 6
95471330 | HMC-12 | start reducing for flow 7 (from NI 0) to parent HMC-13 (to NI 0) at timestep 6
95471330 | HMC-15 | start reducing for flow 12 (from NI 0) to parent HMC-11 (to NI 0) at timestep 6
95471330 | HMC-8 | start reducing for flow 11 (from NI 0) to parent HMC-12 (to NI 0) at timestep 6
95471330 | HMC-10 | start reducing for flow 4 (from NI 0) to parent HMC-14 (to NI 0) at timestep 6
95471330 | HMC-11 | start reducing for flow 13 (from NI 0) to parent HMC-7 (to NI 0) at timestep 6
95532640 | HMC-7 | finishes reducing for flow 9 (from NI 0) to parent HMC-3 (to NI 0) at timestep 6
95532640 | HMC-14 | finishes reducing for flow 8 (from NI 0) to parent HMC-15 (to NI 0) at timestep 6
95532640 | HMC-1 | finishes reducing for flow 10 (from NI 0) to parent HMC-0 (to NI 0) at timestep 6
95532640 | HMC-6 | finishes reducing for flow 0 (from NI 0) to parent HMC-10 (to NI 0) at timestep 6
95532640 | HMC-4 | finishes reducing for flow 15 (from NI 0) to parent HMC-8 (to NI 0) at timestep 6
95532640 | HMC-5 | finishes reducing for flow 1 (from NI 0) to parent HMC-6 (to NI 0) at timestep 6
95532640 | HMC-13 | finishes reducing for flow 3 (from NI 0) to parent HMC-9 (to NI 0) at timestep 6
95532640 | HMC-2 | finishes reducing for flow 6 (from NI 0) to parent HMC-1 (to NI 0) at timestep 6
95532640 | HMC-3 | finishes reducing for flow 5 (from NI 0) to parent HMC-2 (to NI 0) at timestep 6
95532640 | HMC-15 | finishes reducing for flow 12 (from NI 0) to parent HMC-11 (to NI 0) at timestep 6
95532640 | HMC-9 | finishes reducing for flow 2 (from NI 0) to parent HMC-5 (to NI 0) at timestep 6
95532640 | HMC-12 | finishes reducing for flow 7 (from NI 0) to parent HMC-13 (to NI 0) at timestep 6
95532640 | HMC-0 | finishes reducing for flow 14 (from NI 0) to parent HMC-4 (to NI 0) at timestep 6
95532640 | HMC-8 | finishes reducing for flow 11 (from NI 0) to parent HMC-12 (to NI 0) at timestep 6
95532640 | HMC-10 | finishes reducing for flow 4 (from NI 0) to parent HMC-14 (to NI 0) at timestep 6
95532640 | HMC-11 | finishes reducing for flow 13 (from NI 0) to parent HMC-7 (to NI 0) at timestep 6
95533694 | HMC-8 | receives full reduce for flow 15 from child HMC-4
95533694 | HMC-7 | receives full reduce for flow 13 from child HMC-11
95533694 | HMC-14 | receives full reduce for flow 4 from child HMC-10
95533694 | HMC-6 | receives full reduce for flow 1 from child HMC-5
95533694 | HMC-4 | receives full reduce for flow 14 from child HMC-0
95533694 | HMC-5 | receives full reduce for flow 2 from child HMC-9
95533694 | HMC-13 | receives full reduce for flow 7 from child HMC-12
95533694 | HMC-2 | receives full reduce for flow 5 from child HMC-3
95533694 | HMC-3 | receives full reduce for flow 9 from child HMC-7
95533694 | HMC-15 | receives full reduce for flow 8 from child HMC-14
95533694 | HMC-9 | receives full reduce for flow 3 from child HMC-13
95533694 | HMC-12 | receives full reduce for flow 11 from child HMC-8
95533694 | HMC-0 | receives full reduce for flow 10 from child HMC-1
95533694 | HMC-1 | receives full reduce for flow 6 from child HMC-2
95533694 | HMC-10 | receives full reduce for flow 0 from child HMC-6
95533694 | HMC-11 | receives full reduce for flow 12 from child HMC-15
95533695 | HMC-14 | starts aggregation, computation state: aggregating, communication state: reduce-scatter
95533695 | HMC-7 | starts aggregation, computation state: aggregating, communication state: reduce-scatter
95533695 | HMC-0 | starts aggregation, computation state: aggregating, communication state: reduce-scatter
95533695 | HMC-1 | starts aggregation, computation state: aggregating, communication state: reduce-scatter
95533695 | HMC-6 | starts aggregation, computation state: aggregating, communication state: reduce-scatter
95533695 | HMC-4 | starts aggregation, computation state: aggregating, communication state: reduce-scatter
95533695 | HMC-5 | starts aggregation, computation state: aggregating, communication state: reduce-scatter
95533695 | HMC-13 | starts aggregation, computation state: aggregating, communication state: reduce-scatter
95533695 | HMC-2 | starts aggregation, computation state: aggregating, communication state: reduce-scatter
95533695 | HMC-3 | starts aggregation, computation state: aggregating, communication state: reduce-scatter
95533695 | HMC-9 | starts aggregation, computation state: aggregating, communication state: reduce-scatter
95533695 | HMC-12 | starts aggregation, computation state: aggregating, communication state: reduce-scatter
95533695 | HMC-15 | starts aggregation, computation state: aggregating, communication state: reduce-scatter
95533695 | HMC-8 | starts aggregation, computation state: aggregating, communication state: reduce-scatter
95533695 | HMC-10 | starts aggregation, computation state: aggregating, communication state: reduce-scatter
95533695 | HMC-11 | starts aggregation, computation state: aggregating, communication state: reduce-scatter
95541023 | HMC-8 | clear pending aggregation for flow 15 from child HMC-4
95541023 | HMC-8 | finishes aggregation , computation state: idle, communication state: reduce-scatter
95541023 | HMC-14 | clear pending aggregation for flow 4 from child HMC-10
95541023 | HMC-14 | finishes aggregation , computation state: idle, communication state: reduce-scatter
95541023 | HMC-7 | clear pending aggregation for flow 13 from child HMC-11
95541023 | HMC-7 | finishes aggregation , computation state: idle, communication state: reduce-scatter
95541023 | HMC-6 | clear pending aggregation for flow 1 from child HMC-5
95541023 | HMC-6 | finishes aggregation , computation state: idle, communication state: reduce-scatter
95541023 | HMC-4 | clear pending aggregation for flow 14 from child HMC-0
95541023 | HMC-4 | finishes aggregation , computation state: idle, communication state: reduce-scatter
95541023 | HMC-5 | clear pending aggregation for flow 2 from child HMC-9
95541023 | HMC-5 | finishes aggregation , computation state: idle, communication state: reduce-scatter
95541023 | HMC-13 | clear pending aggregation for flow 7 from child HMC-12
95541023 | HMC-13 | finishes aggregation , computation state: idle, communication state: reduce-scatter
95541023 | HMC-2 | clear pending aggregation for flow 5 from child HMC-3
95541023 | HMC-2 | finishes aggregation , computation state: idle, communication state: reduce-scatter
95541023 | HMC-3 | clear pending aggregation for flow 9 from child HMC-7
95541023 | HMC-3 | finishes aggregation , computation state: idle, communication state: reduce-scatter
95541023 | HMC-15 | clear pending aggregation for flow 8 from child HMC-14
95541023 | HMC-15 | finishes aggregation , computation state: idle, communication state: reduce-scatter
95541023 | HMC-9 | clear pending aggregation for flow 3 from child HMC-13
95541023 | HMC-9 | finishes aggregation , computation state: idle, communication state: reduce-scatter
95541023 | HMC-12 | clear pending aggregation for flow 11 from child HMC-8
95541023 | HMC-12 | finishes aggregation , computation state: idle, communication state: reduce-scatter
95541023 | HMC-0 | clear pending aggregation for flow 10 from child HMC-1
95541023 | HMC-0 | finishes aggregation , computation state: idle, communication state: reduce-scatter
95541023 | HMC-1 | clear pending aggregation for flow 6 from child HMC-2
95541023 | HMC-1 | finishes aggregation , computation state: idle, communication state: reduce-scatter
95541023 | HMC-10 | clear pending aggregation for flow 0 from child HMC-6
95541023 | HMC-10 | finishes aggregation , computation state: idle, communication state: reduce-scatter
95541023 | HMC-11 | clear pending aggregation for flow 12 from child HMC-15
95541023 | HMC-11 | finishes aggregation , computation state: idle, communication state: reduce-scatter
95541024 | HMC-14 | start reducing for flow 4 (from NI 0) to parent HMC-15 (to NI 0) at timestep 7
95541024 | HMC-7 | start reducing for flow 13 (from NI 0) to parent HMC-3 (to NI 0) at timestep 7
95541024 | HMC-0 | start reducing for flow 10 (from NI 0) to parent HMC-4 (to NI 0) at timestep 7
95541024 | HMC-1 | start reducing for flow 6 (from NI 0) to parent HMC-0 (to NI 0) at timestep 7
95541024 | HMC-6 | start reducing for flow 1 (from NI 0) to parent HMC-10 (to NI 0) at timestep 7
95541024 | HMC-4 | start reducing for flow 14 (from NI 0) to parent HMC-8 (to NI 0) at timestep 7
95541024 | HMC-5 | start reducing for flow 2 (from NI 0) to parent HMC-6 (to NI 0) at timestep 7
95541024 | HMC-13 | start reducing for flow 7 (from NI 0) to parent HMC-9 (to NI 0) at timestep 7
95541024 | HMC-2 | start reducing for flow 5 (from NI 0) to parent HMC-1 (to NI 0) at timestep 7
95541024 | HMC-3 | start reducing for flow 9 (from NI 0) to parent HMC-2 (to NI 0) at timestep 7
95541024 | HMC-9 | start reducing for flow 3 (from NI 0) to parent HMC-5 (to NI 0) at timestep 7
95541024 | HMC-12 | start reducing for flow 11 (from NI 0) to parent HMC-13 (to NI 0) at timestep 7
95541024 | HMC-15 | start reducing for flow 8 (from NI 0) to parent HMC-11 (to NI 0) at timestep 7
95541024 | HMC-8 | start reducing for flow 15 (from NI 0) to parent HMC-12 (to NI 0) at timestep 7
95541024 | HMC-10 | start reducing for flow 0 (from NI 0) to parent HMC-14 (to NI 0) at timestep 7
95541024 | HMC-11 | start reducing for flow 12 (from NI 0) to parent HMC-7 (to NI 0) at timestep 7
95602334 | HMC-7 | finishes reducing for flow 13 (from NI 0) to parent HMC-3 (to NI 0) at timestep 7
95602334 | HMC-14 | finishes reducing for flow 4 (from NI 0) to parent HMC-15 (to NI 0) at timestep 7
95602334 | HMC-1 | finishes reducing for flow 6 (from NI 0) to parent HMC-0 (to NI 0) at timestep 7
95602334 | HMC-6 | finishes reducing for flow 1 (from NI 0) to parent HMC-10 (to NI 0) at timestep 7
95602334 | HMC-4 | finishes reducing for flow 14 (from NI 0) to parent HMC-8 (to NI 0) at timestep 7
95602334 | HMC-5 | finishes reducing for flow 2 (from NI 0) to parent HMC-6 (to NI 0) at timestep 7
95602334 | HMC-13 | finishes reducing for flow 7 (from NI 0) to parent HMC-9 (to NI 0) at timestep 7
95602334 | HMC-2 | finishes reducing for flow 5 (from NI 0) to parent HMC-1 (to NI 0) at timestep 7
95602334 | HMC-3 | finishes reducing for flow 9 (from NI 0) to parent HMC-2 (to NI 0) at timestep 7
95602334 | HMC-15 | finishes reducing for flow 8 (from NI 0) to parent HMC-11 (to NI 0) at timestep 7
95602334 | HMC-9 | finishes reducing for flow 3 (from NI 0) to parent HMC-5 (to NI 0) at timestep 7
95602334 | HMC-12 | finishes reducing for flow 11 (from NI 0) to parent HMC-13 (to NI 0) at timestep 7
95602334 | HMC-0 | finishes reducing for flow 10 (from NI 0) to parent HMC-4 (to NI 0) at timestep 7
95602334 | HMC-8 | finishes reducing for flow 15 (from NI 0) to parent HMC-12 (to NI 0) at timestep 7
95602334 | HMC-10 | finishes reducing for flow 0 (from NI 0) to parent HMC-14 (to NI 0) at timestep 7
95602334 | HMC-11 | finishes reducing for flow 12 (from NI 0) to parent HMC-7 (to NI 0) at timestep 7
95603388 | HMC-8 | receives full reduce for flow 14 from child HMC-4
95603388 | HMC-7 | receives full reduce for flow 12 from child HMC-11
95603388 | HMC-14 | receives full reduce for flow 0 from child HMC-10
95603388 | HMC-6 | receives full reduce for flow 2 from child HMC-5
95603388 | HMC-4 | receives full reduce for flow 10 from child HMC-0
95603388 | HMC-5 | receives full reduce for flow 3 from child HMC-9
95603388 | HMC-13 | receives full reduce for flow 11 from child HMC-12
95603388 | HMC-2 | receives full reduce for flow 9 from child HMC-3
95603388 | HMC-3 | receives full reduce for flow 13 from child HMC-7
95603388 | HMC-15 | receives full reduce for flow 4 from child HMC-14
95603388 | HMC-9 | receives full reduce for flow 7 from child HMC-13
95603388 | HMC-12 | receives full reduce for flow 15 from child HMC-8
95603388 | HMC-0 | receives full reduce for flow 6 from child HMC-1
95603388 | HMC-1 | receives full reduce for flow 5 from child HMC-2
95603388 | HMC-10 | receives full reduce for flow 1 from child HMC-6
95603388 | HMC-11 | receives full reduce for flow 8 from child HMC-15
95603389 | HMC-14 | starts aggregation, computation state: aggregating, communication state: reduce-scatter
95603389 | HMC-7 | starts aggregation, computation state: aggregating, communication state: reduce-scatter
95603389 | HMC-0 | starts aggregation, computation state: aggregating, communication state: reduce-scatter
95603389 | HMC-1 | starts aggregation, computation state: aggregating, communication state: reduce-scatter
95603389 | HMC-6 | starts aggregation, computation state: aggregating, communication state: reduce-scatter
95603389 | HMC-4 | starts aggregation, computation state: aggregating, communication state: reduce-scatter
95603389 | HMC-5 | starts aggregation, computation state: aggregating, communication state: reduce-scatter
95603389 | HMC-13 | starts aggregation, computation state: aggregating, communication state: reduce-scatter
95603389 | HMC-2 | starts aggregation, computation state: aggregating, communication state: reduce-scatter
95603389 | HMC-3 | starts aggregation, computation state: aggregating, communication state: reduce-scatter
95603389 | HMC-9 | starts aggregation, computation state: aggregating, communication state: reduce-scatter
95603389 | HMC-12 | starts aggregation, computation state: aggregating, communication state: reduce-scatter
95603389 | HMC-15 | starts aggregation, computation state: aggregating, communication state: reduce-scatter
95603389 | HMC-8 | starts aggregation, computation state: aggregating, communication state: reduce-scatter
95603389 | HMC-10 | starts aggregation, computation state: aggregating, communication state: reduce-scatter
95603389 | HMC-11 | starts aggregation, computation state: aggregating, communication state: reduce-scatter
95610717 | HMC-8 | clear pending aggregation for flow 14 from child HMC-4
95610717 | HMC-8 | finishes aggregation , computation state: idle, communication state: reduce-scatter
95610717 | HMC-14 | clear pending aggregation for flow 0 from child HMC-10
95610717 | HMC-14 | finishes aggregation , computation state: idle, communication state: reduce-scatter
95610717 | HMC-7 | clear pending aggregation for flow 12 from child HMC-11
95610717 | HMC-7 | finishes aggregation , computation state: idle, communication state: reduce-scatter
95610717 | HMC-6 | clear pending aggregation for flow 2 from child HMC-5
95610717 | HMC-6 | finishes aggregation , computation state: idle, communication state: reduce-scatter
95610717 | HMC-4 | clear pending aggregation for flow 10 from child HMC-0
95610717 | HMC-4 | finishes aggregation , computation state: idle, communication state: reduce-scatter
95610717 | HMC-5 | clear pending aggregation for flow 3 from child HMC-9
95610717 | HMC-5 | finishes aggregation , computation state: idle, communication state: reduce-scatter
95610717 | HMC-13 | clear pending aggregation for flow 11 from child HMC-12
95610717 | HMC-13 | finishes aggregation , computation state: idle, communication state: reduce-scatter
95610717 | HMC-2 | clear pending aggregation for flow 9 from child HMC-3
95610717 | HMC-2 | finishes aggregation , computation state: idle, communication state: reduce-scatter
95610717 | HMC-3 | clear pending aggregation for flow 13 from child HMC-7
95610717 | HMC-3 | finishes aggregation , computation state: idle, communication state: reduce-scatter
95610717 | HMC-15 | clear pending aggregation for flow 4 from child HMC-14
95610717 | HMC-15 | finishes aggregation , computation state: idle, communication state: reduce-scatter
95610717 | HMC-9 | clear pending aggregation for flow 7 from child HMC-13
95610717 | HMC-9 | finishes aggregation , computation state: idle, communication state: reduce-scatter
95610717 | HMC-12 | clear pending aggregation for flow 15 from child HMC-8
95610717 | HMC-12 | finishes aggregation , computation state: idle, communication state: reduce-scatter
95610717 | HMC-0 | clear pending aggregation for flow 6 from child HMC-1
95610717 | HMC-0 | finishes aggregation , computation state: idle, communication state: reduce-scatter
95610717 | HMC-1 | clear pending aggregation for flow 5 from child HMC-2
95610717 | HMC-1 | finishes aggregation , computation state: idle, communication state: reduce-scatter
95610717 | HMC-10 | clear pending aggregation for flow 1 from child HMC-6
95610717 | HMC-10 | finishes aggregation , computation state: idle, communication state: reduce-scatter
95610717 | HMC-11 | clear pending aggregation for flow 8 from child HMC-15
95610717 | HMC-11 | finishes aggregation , computation state: idle, communication state: reduce-scatter
[...]
96784591 | HMC-12 | receives full gather for flow 2 from parent HMC-13
96784591 | HMC-0 | receives full gather for flow 11 from parent HMC-4
96784591 | HMC-1 | receives full gather for flow 15 from parent HMC-0
96784591 | HMC-10 | receives full gather for flow 12 from parent HMC-14
96784591 | HMC-11 | receives full gather for flow 5 from parent HMC-7
96784592 | HMC-14 | start gathering for flow 13 (from NI 0) to child HMC-10 (to NI 0) at timestep 27
96784592 | HMC-7 | start gathering for flow 6 (from NI 0) to child HMC-11 (to NI 0) at timestep 27
96784592 | HMC-0 | start gathering for flow 11 (from NI 0) to child HMC-1 (to NI 0) at timestep 27
96784592 | HMC-1 | start gathering for flow 15 (from NI 0) to child HMC-2 (to NI 0) at timestep 27
96784592 | HMC-6 | start gathering for flow 8 (from NI 0) to child HMC-5 (to NI 0) at timestep 27
96784592 | HMC-4 | start gathering for flow 7 (from NI 0) to child HMC-0 (to NI 0) at timestep 27
96784592 | HMC-5 | start gathering for flow 4 (from NI 0) to child HMC-9 (to NI 0) at timestep 27
96784592 | HMC-13 | start gathering for flow 1 (from NI 0) to child HMC-12 (to NI 0) at timestep 27
96784592 | HMC-2 | start gathering for flow 14 (from NI 0) to child HMC-3 (to NI 0) at timestep 27
96784592 | HMC-3 | start gathering for flow 10 (from NI 0) to child HMC-7 (to NI 0) at timestep 27
96784592 | HMC-9 | start gathering for flow 0 (from NI 0) to child HMC-13 (to NI 0) at timestep 27
96784592 | HMC-12 | start gathering for flow 2 (from NI 0) to child HMC-8 (to NI 0) at timestep 27
96784592 | HMC-15 | start gathering for flow 9 (from NI 0) to child HMC-14 (to NI 0) at timestep 27
96784592 | HMC-8 | start gathering for flow 3 (from NI 0) to child HMC-4 (to NI 0) at timestep 27
96784592 | HMC-10 | start gathering for flow 12 (from NI 0) to child HMC-6 (to NI 0) at timestep 27
96784592 | HMC-11 | start gathering for flow 5 (from NI 0) to child HMC-15 (to NI 0) at timestep 27
96845902 | HMC-7 | finishes gather for flow 6 (from NI 0) to child HMC-11 (to NI 0) at timestep 27
96845902 | HMC-14 | finishes gather for flow 13 (from NI 0) to child HMC-10 (to NI 0) at timestep 27
96845902 | HMC-1 | finishes gather for flow 15 (from NI 0) to child HMC-2 (to NI 0) at timestep 27
96845902 | HMC-6 | finishes gather for flow 8 (from NI 0) to child HMC-5 (to NI 0) at timestep 27
96845902 | HMC-4 | finishes gather for flow 7 (from NI 0) to child HMC-0 (to NI 0) at timestep 27
96845902 | HMC-5 | finishes gather for flow 4 (from NI 0) to child HMC-9 (to NI 0) at timestep 27
96845902 | HMC-13 | finishes gather for flow 1 (from NI 0) to child HMC-12 (to NI 0) at timestep 27
96845902 | HMC-2 | finishes gather for flow 14 (from NI 0) to child HMC-3 (to NI 0) at timestep 27
96845902 | HMC-3 | finishes gather for flow 10 (from NI 0) to child HMC-7 (to NI 0) at timestep 27
96845902 | HMC-15 | finishes gather for flow 9 (from NI 0) to child HMC-14 (to NI 0) at timestep 27
96845902 | HMC-9 | finishes gather for flow 0 (from NI 0) to child HMC-13 (to NI 0) at timestep 27
96845902 | HMC-12 | finishes gather for flow 2 (from NI 0) to child HMC-8 (to NI 0) at timestep 27
96845902 | HMC-0 | finishes gather for flow 11 (from NI 0) to child HMC-1 (to NI 0) at timestep 27
96845902 | HMC-8 | finishes gather for flow 3 (from NI 0) to child HMC-4 (to NI 0) at timestep 27
96845902 | HMC-10 | finishes gather for flow 12 (from NI 0) to child HMC-6 (to NI 0) at timestep 27
96845902 | HMC-11 | finishes gather for flow 5 (from NI 0) to child HMC-15 (to NI 0) at timestep 27
96846956 | HMC-8 | receives full gather for flow 2 from parent HMC-12
96846956 | HMC-7 | receives full gather for flow 10 from parent HMC-3
96846956 | HMC-14 | receives full gather for flow 9 from parent HMC-15
96846956 | HMC-6 | receives full gather for flow 12 from parent HMC-10
96846956 | HMC-4 | receives full gather for flow 3 from parent HMC-8
96846956 | HMC-5 | receives full gather for flow 8 from parent HMC-6
96846956 | HMC-13 | receives full gather for flow 0 from parent HMC-9
96846956 | HMC-2 | receives full gather for flow 15 from parent HMC-1
96846956 | HMC-3 | receives full gather for flow 14 from parent HMC-2
96846956 | HMC-15 | receives full gather for flow 5 from parent HMC-11
96846956 | HMC-9 | receives full gather for flow 4 from parent HMC-5
96846956 | HMC-12 | receives full gather for flow 1 from parent HMC-13
96846956 | HMC-0 | receives full gather for flow 7 from parent HMC-4
96846956 | HMC-1 | receives full gather for flow 11 from parent HMC-0
96846956 | HMC-10 | receives full gather for flow 13 from parent HMC-14
96846956 | HMC-11 | receives full gather for flow 6 from parent HMC-7
96846957 | HMC-14 | start gathering for flow 9 (from NI 0) to child HMC-10 (to NI 0) at timestep 28
96846957 | HMC-7 | start gathering for flow 10 (from NI 0) to child HMC-11 (to NI 0) at timestep 28
96846957 | HMC-0 | start gathering for flow 7 (from NI 0) to child HMC-1 (to NI 0) at timestep 28
96846957 | HMC-1 | start gathering for flow 11 (from NI 0) to child HMC-2 (to NI 0) at timestep 28
96846957 | HMC-6 | start gathering for flow 12 (from NI 0) to child HMC-5 (to NI 0) at timestep 28
96846957 | HMC-4 | start gathering for flow 3 (from NI 0) to child HMC-0 (to NI 0) at timestep 28
96846957 | HMC-5 | start gathering for flow 8 (from NI 0) to child HMC-9 (to NI 0) at timestep 28
96846957 | HMC-13 | start gathering for flow 0 (from NI 0) to child HMC-12 (to NI 0) at timestep 28
96846957 | HMC-2 | start gathering for flow 15 (from NI 0) to child HMC-3 (to NI 0) at timestep 28
96846957 | HMC-3 | start gathering for flow 14 (from NI 0) to child HMC-7 (to NI 0) at timestep 28
96846957 | HMC-9 | start gathering for flow 4 (from NI 0) to child HMC-13 (to NI 0) at timestep 28
96846957 | HMC-12 | start gathering for flow 1 (from NI 0) to child HMC-8 (to NI 0) at timestep 28
96846957 | HMC-15 | start gathering for flow 5 (from NI 0) to child HMC-14 (to NI 0) at timestep 28
96846957 | HMC-8 | start gathering for flow 2 (from NI 0) to child HMC-4 (to NI 0) at timestep 28
96846957 | HMC-10 | start gathering for flow 13 (from NI 0) to child HMC-6 (to NI 0) at timestep 28
96846957 | HMC-11 | start gathering for flow 6 (from NI 0) to child HMC-15 (to NI 0) at timestep 28
96908267 | HMC-7 | finishes gather for flow 10 (from NI 0) to child HMC-11 (to NI 0) at timestep 28
96908267 | HMC-14 | finishes gather for flow 9 (from NI 0) to child HMC-10 (to NI 0) at timestep 28
96908267 | HMC-1 | finishes gather for flow 11 (from NI 0) to child HMC-2 (to NI 0) at timestep 28
96908267 | HMC-6 | finishes gather for flow 12 (from NI 0) to child HMC-5 (to NI 0) at timestep 28
96908267 | HMC-4 | finishes gather for flow 3 (from NI 0) to child HMC-0 (to NI 0) at timestep 28
96908267 | HMC-5 | finishes gather for flow 8 (from NI 0) to child HMC-9 (to NI 0) at timestep 28
96908267 | HMC-13 | finishes gather for flow 0 (from NI 0) to child HMC-12 (to NI 0) at timestep 28
96908267 | HMC-2 | finishes gather for flow 15 (from NI 0) to child HMC-3 (to NI 0) at timestep 28
96908267 | HMC-3 | finishes gather for flow 14 (from NI 0) to child HMC-7 (to NI 0) at timestep 28
96908267 | HMC-15 | finishes gather for flow 5 (from NI 0) to child HMC-14 (to NI 0) at timestep 28
96908267 | HMC-9 | finishes gather for flow 4 (from NI 0) to child HMC-13 (to NI 0) at timestep 28
96908267 | HMC-12 | finishes gather for flow 1 (from NI 0) to child HMC-8 (to NI 0) at timestep 28
96908267 | HMC-0 | finishes gather for flow 7 (from NI 0) to child HMC-1 (to NI 0) at timestep 28
96908267 | HMC-8 | finishes gather for flow 2 (from NI 0) to child HMC-4 (to NI 0) at timestep 28
96908267 | HMC-10 | finishes gather for flow 13 (from NI 0) to child HMC-6 (to NI 0) at timestep 28
96908267 | HMC-11 | finishes gather for flow 6 (from NI 0) to child HMC-15 (to NI 0) at timestep 28
96909321 | HMC-8 | receives full gather for flow 1 from parent HMC-12
96909321 | HMC-7 | receives full gather for flow 14 from parent HMC-3
96909321 | HMC-14 | receives full gather for flow 5 from parent HMC-15
96909321 | HMC-6 | receives full gather for flow 13 from parent HMC-10
96909321 | HMC-4 | receives full gather for flow 2 from parent HMC-8
96909321 | HMC-5 | receives full gather for flow 12 from parent HMC-6
96909321 | HMC-13 | receives full gather for flow 4 from parent HMC-9
96909321 | HMC-2 | receives full gather for flow 11 from parent HMC-1
96909321 | HMC-3 | receives full gather for flow 15 from parent HMC-2
96909321 | HMC-15 | receives full gather for flow 6 from parent HMC-11
96909321 | HMC-9 | receives full gather for flow 8 from parent HMC-5
96909321 | HMC-12 | receives full gather for flow 0 from parent HMC-13
96909321 | HMC-0 | receives full gather for flow 3 from parent HMC-4
96909321 | HMC-1 | receives full gather for flow 7 from parent HMC-0
96909321 | HMC-10 | receives full gather for flow 9 from parent HMC-14
96909321 | HMC-11 | receives full gather for flow 10 from parent HMC-7
96909322 | HMC-14 | start gathering for flow 5 (from NI 0) to child HMC-10 (to NI 0) at timestep 29
96909322 | HMC-7 | start gathering for flow 14 (from NI 0) to child HMC-11 (to NI 0) at timestep 29
96909322 | HMC-0 | start gathering for flow 3 (from NI 0) to child HMC-1 (to NI 0) at timestep 29
96909322 | HMC-1 | start gathering for flow 7 (from NI 0) to child HMC-2 (to NI 0) at timestep 29
96909322 | HMC-6 | start gathering for flow 13 (from NI 0) to child HMC-5 (to NI 0) at timestep 29
96909322 | HMC-4 | start gathering for flow 2 (from NI 0) to child HMC-0 (to NI 0) at timestep 29
96909322 | HMC-5 | start gathering for flow 12 (from NI 0) to child HMC-9 (to NI 0) at timestep 29
96909322 | HMC-13 | start gathering for flow 4 (from NI 0) to child HMC-12 (to NI 0) at timestep 29
96909322 | HMC-2 | start gathering for flow 11 (from NI 0) to child HMC-3 (to NI 0) at timestep 29
96909322 | HMC-3 | start gathering for flow 15 (from NI 0) to child HMC-7 (to NI 0) at timestep 29
96909322 | HMC-9 | start gathering for flow 8 (from NI 0) to child HMC-13 (to NI 0) at timestep 29
96909322 | HMC-12 | start gathering for flow 0 (from NI 0) to child HMC-8 (to NI 0) at timestep 29
96909322 | HMC-15 | start gathering for flow 6 (from NI 0) to child HMC-14 (to NI 0) at timestep 29
96909322 | HMC-8 | start gathering for flow 1 (from NI 0) to child HMC-4 (to NI 0) at timestep 29
96909322 | HMC-10 | start gathering for flow 9 (from NI 0) to child HMC-6 (to NI 0) at timestep 29
96909322 | HMC-11 | start gathering for flow 10 (from NI 0) to child HMC-15 (to NI 0) at timestep 29
96970632 | HMC-7 | finishes gather for flow 14 (from NI 0) to child HMC-11 (to NI 0) at timestep 29
96970632 | HMC-14 | finishes gather for flow 5 (from NI 0) to child HMC-10 (to NI 0) at timestep 29
96970632 | HMC-1 | finishes gather for flow 7 (from NI 0) to child HMC-2 (to NI 0) at timestep 29
96970632 | HMC-6 | finishes gather for flow 13 (from NI 0) to child HMC-5 (to NI 0) at timestep 29
96970632 | HMC-4 | finishes gather for flow 2 (from NI 0) to child HMC-0 (to NI 0) at timestep 29
96970632 | HMC-5 | finishes gather for flow 12 (from NI 0) to child HMC-9 (to NI 0) at timestep 29
96970632 | HMC-13 | finishes gather for flow 4 (from NI 0) to child HMC-12 (to NI 0) at timestep 29
96970632 | HMC-2 | finishes gather for flow 11 (from NI 0) to child HMC-3 (to NI 0) at timestep 29
96970632 | HMC-3 | finishes gather for flow 15 (from NI 0) to child HMC-7 (to NI 0) at timestep 29
96970632 | HMC-15 | finishes gather for flow 6 (from NI 0) to child HMC-14 (to NI 0) at timestep 29
96970632 | HMC-9 | finishes gather for flow 8 (from NI 0) to child HMC-13 (to NI 0) at timestep 29
96970632 | HMC-12 | finishes gather for flow 0 (from NI 0) to child HMC-8 (to NI 0) at timestep 29
96970632 | HMC-0 | finishes gather for flow 3 (from NI 0) to child HMC-1 (to NI 0) at timestep 29
96970632 | HMC-8 | finishes gather for flow 1 (from NI 0) to child HMC-4 (to NI 0) at timestep 29
96970632 | HMC-10 | finishes gather for flow 9 (from NI 0) to child HMC-6 (to NI 0) at timestep 29
96970632 | HMC-11 | finishes gather for flow 10 (from NI 0) to child HMC-15 (to NI 0) at timestep 29
96971686 | HMC-8 | receives full gather for flow 0 from parent HMC-12
96971686 | HMC-7 | receives full gather for flow 15 from parent HMC-3
96971686 | HMC-14 | receives full gather for flow 6 from parent HMC-15
96971686 | HMC-6 | receives full gather for flow 9 from parent HMC-10
96971686 | HMC-4 | receives full gather for flow 1 from parent HMC-8
96971686 | HMC-5 | receives full gather for flow 13 from parent HMC-6
96971686 | HMC-13 | receives full gather for flow 8 from parent HMC-9
96971686 | HMC-2 | receives full gather for flow 7 from parent HMC-1
96971686 | HMC-3 | receives full gather for flow 11 from parent HMC-2
96971686 | HMC-15 | receives full gather for flow 10 from parent HMC-11
96971686 | HMC-9 | receives full gather for flow 12 from parent HMC-5
96971686 | HMC-12 | receives full gather for flow 4 from parent HMC-13
96971686 | HMC-0 | receives full gather for flow 2 from parent HMC-4
96971686 | HMC-1 | receives full gather for flow 3 from parent HMC-0
96971686 | HMC-10 | receives full gather for flow 5 from parent HMC-14
96971686 | HMC-11 | receives full gather for flow 14 from parent HMC-7
96971687 | HMC-14 | start gathering for flow 6 (from NI 0) to child HMC-10 (to NI 0) at timestep 30
96971687 | HMC-7 | start gathering for flow 15 (from NI 0) to child HMC-11 (to NI 0) at timestep 30
96971687 | HMC-0 | start gathering for flow 2 (from NI 0) to child HMC-1 (to NI 0) at timestep 30
96971687 | HMC-1 | start gathering for flow 3 (from NI 0) to child HMC-2 (to NI 0) at timestep 30
96971687 | HMC-6 | start gathering for flow 9 (from NI 0) to child HMC-5 (to NI 0) at timestep 30
96971687 | HMC-4 | start gathering for flow 1 (from NI 0) to child HMC-0 (to NI 0) at timestep 30
96971687 | HMC-5 | start gathering for flow 13 (from NI 0) to child HMC-9 (to NI 0) at timestep 30
96971687 | HMC-13 | start gathering for flow 8 (from NI 0) to child HMC-12 (to NI 0) at timestep 30
96971687 | HMC-2 | start gathering for flow 7 (from NI 0) to child HMC-3 (to NI 0) at timestep 30
96971687 | HMC-3 | start gathering for flow 11 (from NI 0) to child HMC-7 (to NI 0) at timestep 30
96971687 | HMC-9 | start gathering for flow 12 (from NI 0) to child HMC-13 (to NI 0) at timestep 30
96971687 | HMC-12 | start gathering for flow 4 (from NI 0) to child HMC-8 (to NI 0) at timestep 30
96971687 | HMC-15 | start gathering for flow 10 (from NI 0) to child HMC-14 (to NI 0) at timestep 30
96971687 | HMC-8 | start gathering for flow 0 (from NI 0) to child HMC-4 (to NI 0) at timestep 30
96971687 | HMC-10 | start gathering for flow 5 (from NI 0) to child HMC-6 (to NI 0) at timestep 30
96971687 | HMC-11 | start gathering for flow 14 (from NI 0) to child HMC-15 (to NI 0) at timestep 30
97032997 | HMC-7 | finishes gather for flow 15 (from NI 0) to child HMC-11 (to NI 0) at timestep 30
97032997 | HMC-7 | finishes all-gather (after send-gather-message)
97032997 | HMC-14 | finishes gather for flow 6 (from NI 0) to child HMC-10 (to NI 0) at timestep 30
97032997 | HMC-14 | finishes all-gather (after send-gather-message)
97032997 | HMC-1 | finishes gather for flow 3 (from NI 0) to child HMC-2 (to NI 0) at timestep 30
97032997 | HMC-1 | finishes all-gather (after send-gather-message)
97032997 | HMC-6 | finishes gather for flow 9 (from NI 0) to child HMC-5 (to NI 0) at timestep 30
97032997 | HMC-6 | finishes all-gather (after send-gather-message)
97032997 | HMC-4 | finishes gather for flow 1 (from NI 0) to child HMC-0 (to NI 0) at timestep 30
97032997 | HMC-4 | finishes all-gather (after send-gather-message)
97032997 | HMC-5 | finishes gather for flow 13 (from NI 0) to child HMC-9 (to NI 0) at timestep 30
97032997 | HMC-5 | finishes all-gather (after send-gather-message)
97032997 | HMC-13 | finishes gather for flow 8 (from NI 0) to child HMC-12 (to NI 0) at timestep 30
97032997 | HMC-13 | finishes all-gather (after send-gather-message)
97032997 | HMC-2 | finishes gather for flow 7 (from NI 0) to child HMC-3 (to NI 0) at timestep 30
97032997 | HMC-2 | finishes all-gather (after send-gather-message)
97032997 | HMC-3 | finishes gather for flow 11 (from NI 0) to child HMC-7 (to NI 0) at timestep 30
97032997 | HMC-3 | finishes all-gather (after send-gather-message)
97032997 | HMC-15 | finishes gather for flow 10 (from NI 0) to child HMC-14 (to NI 0) at timestep 30
97032997 | HMC-15 | finishes all-gather (after send-gather-message)
97032997 | HMC-9 | finishes gather for flow 12 (from NI 0) to child HMC-13 (to NI 0) at timestep 30
97032997 | HMC-9 | finishes all-gather (after send-gather-message)
97032997 | HMC-12 | finishes gather for flow 4 (from NI 0) to child HMC-8 (to NI 0) at timestep 30
97032997 | HMC-12 | finishes all-gather (after send-gather-message)
97032997 | HMC-0 | finishes gather for flow 2 (from NI 0) to child HMC-1 (to NI 0) at timestep 30
97032997 | HMC-0 | finishes all-gather (after send-gather-message)
97032997 | HMC-8 | finishes gather for flow 0 (from NI 0) to child HMC-4 (to NI 0) at timestep 30
97032997 | HMC-8 | finishes all-gather (after send-gather-message)
97032997 | HMC-10 | finishes gather for flow 5 (from NI 0) to child HMC-6 (to NI 0) at timestep 30
97032997 | HMC-10 | finishes all-gather (after send-gather-message)
97032997 | HMC-11 | finishes gather for flow 14 (from NI 0) to child HMC-15 (to NI 0) at timestep 30
97032997 | HMC-11 | finishes all-gather (after send-gather-message)
97034051 | HMC-8 | receives full gather for flow 4 from parent HMC-12
97034051 | HMC-8 | finishes all-gather (after recieving all-gather)
97034051 | HMC-7 | receives full gather for flow 11 from parent HMC-3
97034051 | HMC-7 | finishes all-gather (after recieving all-gather)
97034051 | HMC-14 | receives full gather for flow 10 from parent HMC-15
97034051 | HMC-14 | finishes all-gather (after recieving all-gather)
97034051 | HMC-6 | receives full gather for flow 5 from parent HMC-10
97034051 | HMC-6 | finishes all-gather (after recieving all-gather)
97034051 | HMC-4 | receives full gather for flow 0 from parent HMC-8
97034051 | HMC-4 | finishes all-gather (after recieving all-gather)
97034051 | HMC-5 | receives full gather for flow 9 from parent HMC-6
97034051 | HMC-5 | finishes all-gather (after recieving all-gather)
97034051 | HMC-13 | receives full gather for flow 12 from parent HMC-9
97034051 | HMC-13 | finishes all-gather (after recieving all-gather)
97034051 | HMC-2 | receives full gather for flow 3 from parent HMC-1
97034051 | HMC-2 | finishes all-gather (after recieving all-gather)
97034051 | HMC-3 | receives full gather for flow 7 from parent HMC-2
97034051 | HMC-3 | finishes all-gather (after recieving all-gather)
97034051 | HMC-15 | receives full gather for flow 14 from parent HMC-11
97034051 | HMC-15 | finishes all-gather (after recieving all-gather)
97034051 | HMC-9 | receives full gather for flow 13 from parent HMC-5
97034051 | HMC-9 | finishes all-gather (after recieving all-gather)
97034051 | HMC-12 | receives full gather for flow 8 from parent HMC-13
97034051 | HMC-12 | finishes all-gather (after recieving all-gather)
97034051 | HMC-0 | receives full gather for flow 1 from parent HMC-4
97034051 | HMC-0 | finishes all-gather (after recieving all-gather)
97034051 | HMC-1 | receives full gather for flow 2 from parent HMC-0
97034051 | HMC-1 | finishes all-gather (after recieving all-gather)
97034051 | HMC-10 | receives full gather for flow 6 from parent HMC-14
97034051 | HMC-10 | finishes all-gather (after recieving all-gather)
97034051 | HMC-11 | receives full gather for flow 15 from parent HMC-7
97034051 | HMC-11 | finishes all-gather (after recieving all-gather)

======== Simulation Summary ========
Training epoch runtime: 97034200 cycles
 - computation: 95053164 cycles (97.96%)
 - allreduce: 1981036 cycles (2.04%)
     - overlapped computation: 109920 cycles (0.11%)
     - pure communication: 1871116 cycles (1.93%)
Total number of messages: 1756320

