====================================================
******************* SCALE SIM **********************
====================================================
Array Size:    32 x 32
SRAM IFMAP:    524288
SRAM Filter:   524288
SRAM OFMAP:    262144
CSV file path: /home/farabi/study/research/multitree-sim/src/SCALE-Sim/topologies/mlperf/AlphaGoZero.csv
Dataflow:      os
====================================================


Model loading ...
Model loading finished

NN model size: 1573620 parameters

Start a training epoch ...

Feed-Forward ...

Commencing run for Conv
Average utilization : 90.04092474125987 %
Cycles for compute  : 12272 cycles

Commencing run for Res_conv1
Average utilization : 90.29442307066411 %
Cycles for compute  : 184352 cycles

Commencing run for Res_conv2
Average utilization : 90.29442307066411 %
Cycles for compute  : 184352 cycles

Commencing run for ValueHead_conv
Average utilization : 2.9290533685064934 %
Cycles for compute  : 3081 cycles

Commencing run for ValueHead_FC1
Average utilization : 3.0752183967112026 %
Cycles for compute  : 2920 cycles

Commencing run for ValueHead_FC2
Average utilization : 0.09765625 %
Cycles for compute  : 257 cycles

Commencing run for PolicyHead_Conv
Average utilization : 5.858328683035714 %
Cycles for compute  : 3082 cycles

Commencing run for PolidyHead_FC
Average utilization : 2.942399814798801 %
Cycles for compute  : 8674 cycles

Backward Propagation ...

Commencing back-propagation run for PolidyHead_FC
 - compute input-gradient:
 -- input-gradient: read cycles: 8343, write cycles: 24
 - compute filter-gradient:
 -- filter-gradient: read cycles: 305, write cycles: 8696
 - input-gradient-cycles: 8343, uitl: 3.057519683417236 %
 - filter-gradent-cycles: 8696, uitl: 82.03477202868854 %
Average utilization : 5.842910752486124 %
Cycles for compute  : 17039 cycles


Commencing back-propagation run for PolicyHead_Conv
 - compute input-gradient:
 -- input-gradient: read cycles: 223, write cycles: 2920
 - compute filter-gradient:
 -- filter-gradient: read cycles: 2919, write cycles: 2951
 - input-gradient-cycles: 223, uitl: 76.57738929372198 %
 - filter-gradent-cycles: 2951, uitl: 6.151440454779034 %
Average utilization : 11.149844844048376 %
Cycles for compute  : 5871 cycles


Commencing back-propagation run for ValueHead_FC2
 - compute input-gradient:
 -- input-gradient: read cycles: 39, write cycles: 9
 - compute filter-gradient:
 -- filter-gradient: read cycles: 39, write cycles: 288
 - input-gradient-cycles: 39, uitl: 0.09014423076923077 %
 - filter-gradent-cycles: 288, uitl: 0.09014423076923077 %
Average utilization : 0.09014423076923077 %
Cycles for compute  : 327 cycles


Commencing back-propagation run for ValueHead_FC1
 - compute input-gradient:
 -- input-gradient: read cycles: 3080, write cycles: 13
 - compute filter-gradient:
 -- filter-gradient: read cycles: 125, write cycles: 2920
 - input-gradient-cycles: 3080, uitl: 2.9290533685064934 %
 - filter-gradent-cycles: 2920, uitl: 64.4140625 %
Average utilization : 5.3270646450858035 %
Cycles for compute  : 6000 cycles


Commencing back-propagation run for ValueHead_conv
 - compute input-gradient:
 -- input-gradient: read cycles: 127, write cycles: 2920
 - compute filter-gradient:
 -- filter-gradient: read cycles: 2919, write cycles: 2951
 - input-gradient-cycles: 127, uitl: 63.39966781496062 %
 - filter-gradent-cycles: 2951, uitl: 3.0752183967112026 %
Average utilization : 5.590387495896257 %
Cycles for compute  : 5871 cycles


Commencing back-propagation run for Res_conv2
 - compute input-gradient:
 -- input-gradient: read cycles: 221215, write cycles: 2928
 - compute filter-gradient:
 -- filter-gradient: read cycles: 166495, write cycles: 166310
 - input-gradient-cycles: 221215, uitl: 93.99478095404923 %
 - filter-gradent-cycles: 166495, uitl: 99.9749804798943 %
Average utilization : 96.56286875177324 %
Cycles for compute  : 387710 cycles


Commencing back-propagation run for Res_conv1
 - compute input-gradient:
 -- input-gradient: read cycles: 221215, write cycles: 2928
 - compute filter-gradient:
 -- filter-gradient: read cycles: 166495, write cycles: 166310
 - input-gradient-cycles: 221215, uitl: 93.99478095404923 %
 - filter-gradent-cycles: 166495, uitl: 99.9749804798943 %
Average utilization : 96.56286875177324 %
Cycles for compute  : 387710 cycles


Commencing back-propagation run for Conv
 - compute input-gradient:
 -- input-gradient: read cycles: 27664, write cycles: 401
 - compute filter-gradient:
 -- filter-gradient: read cycles: 11584, write cycles: 11448
 - input-gradient-cycles: 27664, uitl: 49.91084419281376 %
 - filter-gradent-cycles: 11584, uitl: 95.35896764934392 %
Average utilization : 63.324803174684064 %
Cycles for compute  : 39248 cycles

0 | HMC-7 | starts training, computation state: training, communication state: idle
0 | HMC-12 | starts training, computation state: training, communication state: idle
0 | HMC-15 | starts training, computation state: training, communication state: idle
0 | HMC-6 | starts training, computation state: training, communication state: idle
0 | HMC-4 | starts training, computation state: training, communication state: idle
0 | HMC-5 | starts training, computation state: training, communication state: idle
0 | HMC-2 | starts training, computation state: training, communication state: idle
0 | HMC-3 | starts training, computation state: training, communication state: idle
0 | HMC-14 | starts training, computation state: training, communication state: idle
0 | HMC-9 | starts training, computation state: training, communication state: idle
0 | HMC-1 | starts training, computation state: training, communication state: idle
0 | HMC-0 | starts training, computation state: training, communication state: idle
0 | HMC-8 | starts training, computation state: training, communication state: idle
0 | HMC-10 | starts training, computation state: training, communication state: idle
0 | HMC-13 | starts training, computation state: training, communication state: idle
0 | HMC-11 | starts training, computation state: training, communication state: idle
1248766 | HMC-15 finishes training, computation sate: idle, communication state: idle
1248766 | HMC-7 finishes training, computation sate: idle, communication state: idle
1248766 | HMC-12 finishes training, computation sate: idle, communication state: idle
1248766 | HMC-6 finishes training, computation sate: idle, communication state: idle
1248766 | HMC-4 finishes training, computation sate: idle, communication state: idle
1248766 | HMC-5 finishes training, computation sate: idle, communication state: idle
1248766 | HMC-2 finishes training, computation sate: idle, communication state: idle
1248766 | HMC-3 finishes training, computation sate: idle, communication state: idle
1248766 | HMC-14 finishes training, computation sate: idle, communication state: idle
1248766 | HMC-9 finishes training, computation sate: idle, communication state: idle
1248766 | HMC-1 finishes training, computation sate: idle, communication state: idle
1248766 | HMC-0 finishes training, computation sate: idle, communication state: idle
1248766 | HMC-8 finishes training, computation sate: idle, communication state: idle
1248766 | HMC-10 finishes training, computation sate: idle, communication state: idle
1248766 | HMC-13 finishes training, computation sate: idle, communication state: idle
1248766 | HMC-11 finishes training, computation sate: idle, communication state: idle
1248767 | HMC-15 | starts aggregation, computation state: aggregating, communication state: idle
1248767 | HMC-7 | starts aggregation, computation state: aggregating, communication state: idle
1248767 | HMC-12 | starts aggregation, computation state: aggregating, communication state: idle
1248767 | HMC-6 | starts aggregation, computation state: aggregating, communication state: idle
1248767 | HMC-4 | starts aggregation, computation state: aggregating, communication state: idle
1248767 | HMC-5 | starts aggregation, computation state: aggregating, communication state: idle
1248767 | HMC-2 | starts aggregation, computation state: aggregating, communication state: idle
1248767 | HMC-3 | starts aggregation, computation state: aggregating, communication state: idle
1248767 | HMC-14 | starts aggregation, computation state: aggregating, communication state: idle
1248767 | HMC-9 | starts aggregation, computation state: aggregating, communication state: idle
1248767 | HMC-1 | starts aggregation, computation state: aggregating, communication state: idle
1248767 | HMC-0 | starts aggregation, computation state: aggregating, communication state: idle
1248767 | HMC-8 | starts aggregation, computation state: aggregating, communication state: idle
1248767 | HMC-10 | starts aggregation, computation state: aggregating, communication state: idle
1248767 | HMC-13 | starts aggregation, computation state: aggregating, communication state: idle
1248767 | HMC-11 | starts aggregation, computation state: aggregating, communication state: idle
1297951 | HMC-15 | finishes aggregation , computation state: idle, communication state: reduce-scatter
1297951 | HMC-7 | finishes aggregation , computation state: idle, communication state: reduce-scatter
1297951 | HMC-12 | finishes aggregation , computation state: idle, communication state: reduce-scatter
1297951 | HMC-6 | finishes aggregation , computation state: idle, communication state: reduce-scatter
1297951 | HMC-4 | finishes aggregation , computation state: idle, communication state: reduce-scatter
1297951 | HMC-5 | finishes aggregation , computation state: idle, communication state: reduce-scatter
1297951 | HMC-2 | finishes aggregation , computation state: idle, communication state: reduce-scatter
1297951 | HMC-3 | finishes aggregation , computation state: idle, communication state: reduce-scatter
1297951 | HMC-14 | finishes aggregation , computation state: idle, communication state: reduce-scatter
1297951 | HMC-9 | finishes aggregation , computation state: idle, communication state: reduce-scatter
1297951 | HMC-1 | finishes aggregation , computation state: idle, communication state: reduce-scatter
1297951 | HMC-0 | finishes aggregation , computation state: idle, communication state: reduce-scatter
1297951 | HMC-8 | finishes aggregation , computation state: idle, communication state: reduce-scatter
1297951 | HMC-10 | finishes aggregation , computation state: idle, communication state: reduce-scatter
1297951 | HMC-13 | finishes aggregation , computation state: idle, communication state: reduce-scatter
1297951 | HMC-11 | finishes aggregation , computation state: idle, communication state: reduce-scatter
1297952 | HMC-15 | start reducing for flow 14 (from NI 0) to parent HMC-11 (to NI 0) at timestep 0
1297952 | HMC-7 | start reducing for flow 11 (from NI 0) to parent HMC-3 (to NI 0) at timestep 0
1297952 | HMC-12 | start reducing for flow 8 (from NI 0) to parent HMC-13 (to NI 0) at timestep 0
1297952 | HMC-6 | start reducing for flow 5 (from NI 0) to parent HMC-10 (to NI 0) at timestep 0
1297952 | HMC-4 | start reducing for flow 0 (from NI 0) to parent HMC-8 (to NI 0) at timestep 0
1297952 | HMC-5 | start reducing for flow 9 (from NI 0) to parent HMC-6 (to NI 0) at timestep 0
1297952 | HMC-2 | start reducing for flow 3 (from NI 0) to parent HMC-1 (to NI 0) at timestep 0
1297952 | HMC-3 | start reducing for flow 7 (from NI 0) to parent HMC-2 (to NI 0) at timestep 0
1297952 | HMC-14 | start reducing for flow 10 (from NI 0) to parent HMC-15 (to NI 0) at timestep 0
1297952 | HMC-9 | start reducing for flow 13 (from NI 0) to parent HMC-5 (to NI 0) at timestep 0
1297952 | HMC-1 | start reducing for flow 2 (from NI 0) to parent HMC-0 (to NI 0) at timestep 0
1297952 | HMC-0 | start reducing for flow 1 (from NI 0) to parent HMC-4 (to NI 0) at timestep 0
1297952 | HMC-8 | start reducing for flow 4 (from NI 0) to parent HMC-12 (to NI 0) at timestep 0
1297952 | HMC-10 | start reducing for flow 6 (from NI 0) to parent HMC-14 (to NI 0) at timestep 0
1297952 | HMC-13 | start reducing for flow 12 (from NI 0) to parent HMC-9 (to NI 0) at timestep 0
1297952 | HMC-11 | start reducing for flow 15 (from NI 0) to parent HMC-7 (to NI 0) at timestep 0
1323188 | HMC-2 | finishes reducing for flow 3 (from NI 0) to parent HMC-1 (to NI 0) at timestep 0
1323188 | HMC-3 | finishes reducing for flow 7 (from NI 0) to parent HMC-2 (to NI 0) at timestep 0
1323188 | HMC-14 | finishes reducing for flow 10 (from NI 0) to parent HMC-15 (to NI 0) at timestep 0
1323188 | HMC-0 | finishes reducing for flow 1 (from NI 0) to parent HMC-4 (to NI 0) at timestep 0
1323188 | HMC-1 | finishes reducing for flow 2 (from NI 0) to parent HMC-0 (to NI 0) at timestep 0
1324242 | HMC-15 | receives full reduce for flow 10 from child HMC-14
1324242 | HMC-2 | receives full reduce for flow 7 from child HMC-3
1324242 | HMC-0 | receives full reduce for flow 2 from child HMC-1
1324242 | HMC-1 | receives full reduce for flow 3 from child HMC-2
1324243 | HMC-15 | starts aggregation, computation state: aggregating, communication state: reduce-scatter
1324243 | HMC-2 | starts aggregation, computation state: aggregating, communication state: reduce-scatter
1324243 | HMC-0 | starts aggregation, computation state: aggregating, communication state: reduce-scatter
1324243 | HMC-1 | starts aggregation, computation state: aggregating, communication state: reduce-scatter
1324701 | HMC-4 | receives full reduce for flow 1 from child HMC-0
1324702 | HMC-4 | starts aggregation, computation state: aggregating, communication state: reduce-scatter
1327331 | HMC-15 | clear pending aggregation for flow 10 from child HMC-14
1327331 | HMC-15 | finishes aggregation , computation state: idle, communication state: reduce-scatter
1327331 | HMC-2 | clear pending aggregation for flow 7 from child HMC-3
1327331 | HMC-2 | finishes aggregation , computation state: idle, communication state: reduce-scatter
1327331 | HMC-1 | clear pending aggregation for flow 3 from child HMC-2
1327331 | HMC-1 | finishes aggregation , computation state: idle, communication state: reduce-scatter
1327331 | HMC-0 | clear pending aggregation for flow 2 from child HMC-1
1327331 | HMC-0 | finishes aggregation , computation state: idle, communication state: reduce-scatter
1327332 | HMC-2 | start reducing for flow 7 (from NI 0) to parent HMC-1 (to NI 0) at timestep 1
1327332 | HMC-1 | start reducing for flow 3 (from NI 0) to parent HMC-0 (to NI 0) at timestep 1
1327332 | HMC-0 | start reducing for flow 2 (from NI 0) to parent HMC-4 (to NI 0) at timestep 1
1327790 | HMC-4 | clear pending aggregation for flow 1 from child HMC-0
1327790 | HMC-4 | finishes aggregation , computation state: idle, communication state: reduce-scatter
1342157 | HMC-7 | finishes reducing for flow 11 (from NI 0) to parent HMC-3 (to NI 0) at timestep 0
1342231 | HMC-12 | finishes reducing for flow 8 (from NI 0) to parent HMC-13 (to NI 0) at timestep 0
1346282 | HMC-13 | receives full reduce for flow 8 from child HMC-12
1346283 | HMC-13 | starts aggregation, computation state: aggregating, communication state: reduce-scatter
1346787 | HMC-3 | receives full reduce for flow 11 from child HMC-7
1346788 | HMC-3 | starts aggregation, computation state: aggregating, communication state: reduce-scatter
1347980 | HMC-9 | finishes reducing for flow 13 (from NI 0) to parent HMC-5 (to NI 0) at timestep 0
1348026 | HMC-10 | finishes reducing for flow 6 (from NI 0) to parent HMC-14 (to NI 0) at timestep 0
1349355 | HMC-13 | clear pending aggregation for flow 8 from child HMC-12
1349355 | HMC-13 | finishes aggregation , computation state: idle, communication state: reduce-scatter
1349876 | HMC-3 | clear pending aggregation for flow 11 from child HMC-7
1349876 | HMC-3 | finishes aggregation , computation state: idle, communication state: reduce-scatter
1349877 | HMC-3 | start reducing for flow 11 (from NI 0) to parent HMC-2 (to NI 0) at timestep 1
1352568 | HMC-2 | finishes reducing for flow 7 (from NI 0) to parent HMC-1 (to NI 0) at timestep 1
1352568 | HMC-1 | finishes reducing for flow 3 (from NI 0) to parent HMC-0 (to NI 0) at timestep 1
1352568 | HMC-0 | finishes reducing for flow 2 (from NI 0) to parent HMC-4 (to NI 0) at timestep 1
1353438 | HMC-11 | finishes reducing for flow 15 (from NI 0) to parent HMC-7 (to NI 0) at timestep 0
1353548 | HMC-8 | finishes reducing for flow 4 (from NI 0) to parent HMC-12 (to NI 0) at timestep 0
1353622 | HMC-1 | receives full reduce for flow 7 from child HMC-2
1353622 | HMC-0 | receives full reduce for flow 3 from child HMC-1
1353623 | HMC-1 | starts aggregation, computation state: aggregating, communication state: reduce-scatter
1353623 | HMC-0 | starts aggregation, computation state: aggregating, communication state: reduce-scatter
1354081 | HMC-4 | receives full reduce for flow 2 from child HMC-0
1354082 | HMC-4 | starts aggregation, computation state: aggregating, communication state: reduce-scatter
1354160 | HMC-14 | receives full reduce for flow 6 from child HMC-10
1354161 | HMC-14 | starts aggregation, computation state: aggregating, communication state: reduce-scatter
1354431 | HMC-5 | receives full reduce for flow 13 from child HMC-9
1354432 | HMC-5 | starts aggregation, computation state: aggregating, communication state: reduce-scatter
1356711 | HMC-0 | clear pending aggregation for flow 3 from child HMC-1
1356711 | HMC-0 | finishes aggregation , computation state: idle, communication state: reduce-scatter
1356711 | HMC-1 | clear pending aggregation for flow 7 from child HMC-2
1356711 | HMC-1 | finishes aggregation , computation state: idle, communication state: reduce-scatter
1356712 | HMC-0 | start reducing for flow 3 (from NI 0) to parent HMC-4 (to NI 0) at timestep 2
1356712 | HMC-1 | start reducing for flow 7 (from NI 0) to parent HMC-0 (to NI 0) at timestep 2
1356933 | HMC-15 | finishes reducing for flow 14 (from NI 0) to parent HMC-11 (to NI 0) at timestep 0
1356934 | HMC-15 | start reducing for flow 10 (from NI 0) to parent HMC-11 (to NI 0) at timestep 1
1357170 | HMC-4 | clear pending aggregation for flow 2 from child HMC-0
1357170 | HMC-4 | finishes aggregation , computation state: idle, communication state: reduce-scatter
1357233 | HMC-14 | clear pending aggregation for flow 6 from child HMC-10
1357233 | HMC-14 | finishes aggregation , computation state: idle, communication state: reduce-scatter
1357234 | HMC-14 | start reducing for flow 6 (from NI 0) to parent HMC-15 (to NI 0) at timestep 1
1357520 | HMC-5 | clear pending aggregation for flow 13 from child HMC-9
1357520 | HMC-5 | finishes aggregation , computation state: idle, communication state: reduce-scatter
1359360 | HMC-6 | finishes reducing for flow 5 (from NI 0) to parent HMC-10 (to NI 0) at timestep 0
1359499 | HMC-7 | receives full reduce for flow 15 from child HMC-11
1359500 | HMC-7 | starts aggregation, computation state: aggregating, communication state: reduce-scatter
1359699 | HMC-12 | receives full reduce for flow 4 from child HMC-8
1359700 | HMC-12 | starts aggregation, computation state: aggregating, communication state: reduce-scatter
1361361 | HMC-13 | finishes reducing for flow 12 (from NI 0) to parent HMC-9 (to NI 0) at timestep 0
1361362 | HMC-13 | start reducing for flow 8 (from NI 0) to parent HMC-9 (to NI 0) at timestep 1
1362572 | HMC-7 | clear pending aggregation for flow 15 from child HMC-11
1362572 | HMC-7 | finishes aggregation , computation state: idle, communication state: reduce-scatter
1362573 | HMC-7 | start reducing for flow 15 (from NI 0) to parent HMC-3 (to NI 0) at timestep 1
1362772 | HMC-12 | clear pending aggregation for flow 4 from child HMC-8
1362772 | HMC-12 | finishes aggregation , computation state: idle, communication state: reduce-scatter
1362773 | HMC-12 | start reducing for flow 4 (from NI 0) to parent HMC-13 (to NI 0) at timestep 1
1364753 | HMC-4 | finishes reducing for flow 0 (from NI 0) to parent HMC-8 (to NI 0) at timestep 0
1364754 | HMC-4 | start reducing for flow 1 (from NI 0) to parent HMC-8 (to NI 0) at timestep 1
1365189 | HMC-10 | receives full reduce for flow 5 from child HMC-6
1365190 | HMC-10 | starts aggregation, computation state: aggregating, communication state: reduce-scatter
1366635 | HMC-5 | finishes reducing for flow 9 (from NI 0) to parent HMC-6 (to NI 0) at timestep 0
1366636 | HMC-5 | start reducing for flow 13 (from NI 0) to parent HMC-6 (to NI 0) at timestep 1
1367840 | HMC-11 | receives full reduce for flow 14 from child HMC-15
1367841 | HMC-11 | starts aggregation, computation state: aggregating, communication state: reduce-scatter
1368041 | HMC-9 | receives full reduce for flow 12 from child HMC-13
1368042 | HMC-9 | starts aggregation, computation state: aggregating, communication state: reduce-scatter
1368246 | HMC-10 | clear pending aggregation for flow 5 from child HMC-6
1368246 | HMC-10 | finishes aggregation , computation state: idle, communication state: reduce-scatter
1368247 | HMC-10 | start reducing for flow 5 (from NI 0) to parent HMC-14 (to NI 0) at timestep 1
1370913 | HMC-11 | clear pending aggregation for flow 14 from child HMC-15
1370913 | HMC-11 | finishes aggregation , computation state: idle, communication state: reduce-scatter
1370914 | HMC-11 | start reducing for flow 14 (from NI 0) to parent HMC-7 (to NI 0) at timestep 1
1371114 | HMC-9 | clear pending aggregation for flow 12 from child HMC-13
1371114 | HMC-9 | finishes aggregation , computation state: idle, communication state: reduce-scatter
1371115 | HMC-9 | start reducing for flow 12 (from NI 0) to parent HMC-5 (to NI 0) at timestep 1
1371862 | HMC-6 | receives full reduce for flow 9 from child HMC-5
1371863 | HMC-6 | starts aggregation, computation state: aggregating, communication state: reduce-scatter
1372781 | HMC-8 | receives full reduce for flow 0 from child HMC-4
1372782 | HMC-8 | starts aggregation, computation state: aggregating, communication state: reduce-scatter
1374935 | HMC-6 | clear pending aggregation for flow 9 from child HMC-5
1374935 | HMC-6 | finishes aggregation , computation state: idle, communication state: reduce-scatter
1374936 | HMC-6 | start reducing for flow 9 (from NI 0) to parent HMC-10 (to NI 0) at timestep 1
1375113 | HMC-3 | finishes reducing for flow 11 (from NI 0) to parent HMC-2 (to NI 0) at timestep 1
1375870 | HMC-8 | clear pending aggregation for flow 0 from child HMC-4
1375870 | HMC-8 | finishes aggregation , computation state: idle, communication state: reduce-scatter
1375871 | HMC-8 | start reducing for flow 0 (from NI 0) to parent HMC-12 (to NI 0) at timestep 1
1376167 | HMC-2 | receives full reduce for flow 11 from child HMC-3
1376168 | HMC-2 | starts aggregation, computation state: aggregating, communication state: reduce-scatter
1379256 | HMC-2 | clear pending aggregation for flow 11 from child HMC-3
1379256 | HMC-2 | finishes aggregation , computation state: idle, communication state: reduce-scatter
1379257 | HMC-2 | start reducing for flow 11 (from NI 0) to parent HMC-1 (to NI 0) at timestep 2
1381948 | HMC-0 | finishes reducing for flow 3 (from NI 0) to parent HMC-4 (to NI 0) at timestep 2
1381948 | HMC-1 | finishes reducing for flow 7 (from NI 0) to parent HMC-0 (to NI 0) at timestep 2
1382470 | HMC-14 | finishes reducing for flow 6 (from NI 0) to parent HMC-15 (to NI 0) at timestep 1
1383002 | HMC-0 | receives full reduce for flow 7 from child HMC-1
1383003 | HMC-0 | starts aggregation, computation state: aggregating, communication state: reduce-scatter
1383461 | HMC-4 | receives full reduce for flow 3 from child HMC-0
1383462 | HMC-4 | starts aggregation, computation state: aggregating, communication state: reduce-scatter
1383524 | HMC-15 | receives full reduce for flow 6 from child HMC-14
1383525 | HMC-15 | starts aggregation, computation state: aggregating, communication state: reduce-scatter
1386091 | HMC-0 | clear pending aggregation for flow 7 from child HMC-1
1386091 | HMC-0 | finishes aggregation , computation state: idle, communication state: reduce-scatter
1386092 | HMC-0 | start reducing for flow 7 (from NI 0) to parent HMC-4 (to NI 0) at timestep 3
1386550 | HMC-4 | clear pending aggregation for flow 3 from child HMC-0
1386550 | HMC-4 | finishes aggregation , computation state: idle, communication state: reduce-scatter
1386613 | HMC-15 | clear pending aggregation for flow 6 from child HMC-14
1386613 | HMC-15 | finishes aggregation , computation state: idle, communication state: reduce-scatter
1399832 | HMC-7 | finishes reducing for flow 15 (from NI 0) to parent HMC-3 (to NI 0) at timestep 1
1403280 | HMC-12 | finishes reducing for flow 4 (from NI 0) to parent HMC-13 (to NI 0) at timestep 1
1404493 | HMC-2 | finishes reducing for flow 11 (from NI 0) to parent HMC-1 (to NI 0) at timestep 2
1404561 | HMC-3 | receives full reduce for flow 15 from child HMC-7
1404562 | HMC-3 | starts aggregation, computation state: aggregating, communication state: reduce-scatter
1405547 | HMC-1 | receives full reduce for flow 11 from child HMC-2
1405548 | HMC-1 | starts aggregation, computation state: aggregating, communication state: reduce-scatter
1407351 | HMC-13 | receives full reduce for flow 4 from child HMC-12
1407352 | HMC-13 | starts aggregation, computation state: aggregating, communication state: reduce-scatter
1407650 | HMC-3 | clear pending aggregation for flow 15 from child HMC-7
1407650 | HMC-3 | finishes aggregation , computation state: idle, communication state: reduce-scatter
1407651 | HMC-3 | start reducing for flow 15 (from NI 0) to parent HMC-2 (to NI 0) at timestep 2
1408636 | HMC-1 | clear pending aggregation for flow 11 from child HMC-2
1408636 | HMC-1 | finishes aggregation , computation state: idle, communication state: reduce-scatter
1408637 | HMC-1 | start reducing for flow 11 (from NI 0) to parent HMC-0 (to NI 0) at timestep 3
1410440 | HMC-13 | clear pending aggregation for flow 4 from child HMC-12
1410440 | HMC-13 | finishes aggregation , computation state: idle, communication state: reduce-scatter
1411328 | HMC-0 | finishes reducing for flow 7 (from NI 0) to parent HMC-4 (to NI 0) at timestep 3
1412841 | HMC-4 | receives full reduce for flow 7 from child HMC-0
1412842 | HMC-4 | starts aggregation, computation state: aggregating, communication state: reduce-scatter
1415930 | HMC-4 | clear pending aggregation for flow 7 from child HMC-0
1415930 | HMC-4 | finishes aggregation , computation state: idle, communication state: reduce-scatter
1415989 | HMC-10 | finishes reducing for flow 5 (from NI 0) to parent HMC-14 (to NI 0) at timestep 1
1418275 | HMC-9 | finishes reducing for flow 12 (from NI 0) to parent HMC-5 (to NI 0) at timestep 1
1422072 | HMC-14 | receives full reduce for flow 5 from child HMC-10
1422073 | HMC-14 | starts aggregation, computation state: aggregating, communication state: reduce-scatter
1424133 | HMC-11 | finishes reducing for flow 14 (from NI 0) to parent HMC-7 (to NI 0) at timestep 1
1424252 | HMC-15 | finishes reducing for flow 10 (from NI 0) to parent HMC-11 (to NI 0) at timestep 1
1424253 | HMC-15 | start reducing for flow 6 (from NI 0) to parent HMC-11 (to NI 0) at timestep 2
1424650 | HMC-5 | receives full reduce for flow 12 from child HMC-9
1424651 | HMC-5 | starts aggregation, computation state: aggregating, communication state: reduce-scatter
1425145 | HMC-14 | clear pending aggregation for flow 5 from child HMC-10
1425145 | HMC-14 | finishes aggregation , computation state: idle, communication state: reduce-scatter
1425146 | HMC-14 | start reducing for flow 5 (from NI 0) to parent HMC-15 (to NI 0) at timestep 2
1427723 | HMC-5 | clear pending aggregation for flow 12 from child HMC-9
1427723 | HMC-5 | finishes aggregation , computation state: idle, communication state: reduce-scatter
1428998 | HMC-13 | finishes reducing for flow 8 (from NI 0) to parent HMC-9 (to NI 0) at timestep 1
1428999 | HMC-13 | start reducing for flow 4 (from NI 0) to parent HMC-9 (to NI 0) at timestep 2
1430239 | HMC-7 | receives full reduce for flow 14 from child HMC-11
1430240 | HMC-7 | starts aggregation, computation state: aggregating, communication state: reduce-scatter
1431168 | HMC-8 | finishes reducing for flow 0 (from NI 0) to parent HMC-12 (to NI 0) at timestep 1
1432887 | HMC-3 | finishes reducing for flow 15 (from NI 0) to parent HMC-2 (to NI 0) at timestep 2
1433328 | HMC-7 | clear pending aggregation for flow 14 from child HMC-11
1433328 | HMC-7 | finishes aggregation , computation state: idle, communication state: reduce-scatter
1433329 | HMC-7 | start reducing for flow 14 (from NI 0) to parent HMC-3 (to NI 0) at timestep 2
1433873 | HMC-1 | finishes reducing for flow 11 (from NI 0) to parent HMC-0 (to NI 0) at timestep 3
1433941 | HMC-2 | receives full reduce for flow 15 from child HMC-3
1433942 | HMC-2 | starts aggregation, computation state: aggregating, communication state: reduce-scatter
1434927 | HMC-0 | receives full reduce for flow 11 from child HMC-1
1434928 | HMC-0 | starts aggregation, computation state: aggregating, communication state: reduce-scatter
1435141 | HMC-4 | finishes reducing for flow 1 (from NI 0) to parent HMC-8 (to NI 0) at timestep 1
1435142 | HMC-4 | start reducing for flow 2 (from NI 0) to parent HMC-8 (to NI 0) at timestep 2
1435901 | HMC-9 | receives full reduce for flow 8 from child HMC-13
1435902 | HMC-9 | starts aggregation, computation state: aggregating, communication state: reduce-scatter
1436129 | HMC-11 | receives full reduce for flow 10 from child HMC-15
1436130 | HMC-11 | starts aggregation, computation state: aggregating, communication state: reduce-scatter
1436338 | HMC-6 | finishes reducing for flow 9 (from NI 0) to parent HMC-10 (to NI 0) at timestep 1
1437030 | HMC-2 | clear pending aggregation for flow 15 from child HMC-3
1437030 | HMC-2 | finishes aggregation , computation state: idle, communication state: reduce-scatter
1437031 | HMC-2 | start reducing for flow 15 (from NI 0) to parent HMC-1 (to NI 0) at timestep 3
1437258 | HMC-5 | finishes reducing for flow 13 (from NI 0) to parent HMC-6 (to NI 0) at timestep 1
1437259 | HMC-5 | start reducing for flow 12 (from NI 0) to parent HMC-6 (to NI 0) at timestep 2
1437393 | HMC-12 | receives full reduce for flow 0 from child HMC-8
1437394 | HMC-12 | starts aggregation, computation state: aggregating, communication state: reduce-scatter
1438016 | HMC-0 | clear pending aggregation for flow 11 from child HMC-1
1438016 | HMC-0 | finishes aggregation , computation state: idle, communication state: reduce-scatter
1438017 | HMC-0 | start reducing for flow 11 (from NI 0) to parent HMC-4 (to NI 0) at timestep 4
1438990 | HMC-9 | clear pending aggregation for flow 8 from child HMC-13
1438990 | HMC-9 | finishes aggregation , computation state: idle, communication state: reduce-scatter
1438991 | HMC-9 | start reducing for flow 8 (from NI 0) to parent HMC-5 (to NI 0) at timestep 2
1439218 | HMC-11 | clear pending aggregation for flow 10 from child HMC-15
1439218 | HMC-11 | finishes aggregation , computation state: idle, communication state: reduce-scatter
1439219 | HMC-11 | start reducing for flow 10 (from NI 0) to parent HMC-7 (to NI 0) at timestep 2
1440466 | HMC-12 | clear pending aggregation for flow 0 from child HMC-8
1440466 | HMC-12 | finishes aggregation , computation state: idle, communication state: reduce-scatter
1440467 | HMC-12 | start reducing for flow 0 (from NI 0) to parent HMC-13 (to NI 0) at timestep 2
1442497 | HMC-10 | receives full reduce for flow 9 from child HMC-6
1442498 | HMC-10 | starts aggregation, computation state: aggregating, communication state: reduce-scatter
1443222 | HMC-6 | receives full reduce for flow 13 from child HMC-5
1443223 | HMC-6 | starts aggregation, computation state: aggregating, communication state: reduce-scatter
1443832 | HMC-8 | receives full reduce for flow 1 from child HMC-4
1443833 | HMC-8 | starts aggregation, computation state: aggregating, communication state: reduce-scatter
1445570 | HMC-10 | clear pending aggregation for flow 9 from child HMC-6
1445570 | HMC-10 | finishes aggregation , computation state: idle, communication state: reduce-scatter
1445571 | HMC-10 | start reducing for flow 9 (from NI 0) to parent HMC-14 (to NI 0) at timestep 2
1446311 | HMC-6 | clear pending aggregation for flow 13 from child HMC-5
1446311 | HMC-6 | finishes aggregation , computation state: idle, communication state: reduce-scatter
1446312 | HMC-6 | start reducing for flow 13 (from NI 0) to parent HMC-10 (to NI 0) at timestep 2
1446905 | HMC-8 | clear pending aggregation for flow 1 from child HMC-4
1446905 | HMC-8 | finishes aggregation , computation state: idle, communication state: reduce-scatter
1446906 | HMC-8 | start reducing for flow 1 (from NI 0) to parent HMC-12 (to NI 0) at timestep 2
1450382 | HMC-14 | finishes reducing for flow 5 (from NI 0) to parent HMC-15 (to NI 0) at timestep 2
1451436 | HMC-15 | receives full reduce for flow 5 from child HMC-14
1451437 | HMC-15 | starts aggregation, computation state: aggregating, communication state: reduce-scatter
1454525 | HMC-15 | clear pending aggregation for flow 5 from child HMC-14
1454525 | HMC-15 | finishes aggregation , computation state: idle, communication state: reduce-scatter
1462267 | HMC-2 | finishes reducing for flow 15 (from NI 0) to parent HMC-1 (to NI 0) at timestep 3
1463253 | HMC-0 | finishes reducing for flow 11 (from NI 0) to parent HMC-4 (to NI 0) at timestep 4
1463321 | HMC-1 | receives full reduce for flow 15 from child HMC-2
1463322 | HMC-1 | starts aggregation, computation state: aggregating, communication state: reduce-scatter
1464766 | HMC-4 | receives full reduce for flow 11 from child HMC-0
1464767 | HMC-4 | starts aggregation, computation state: aggregating, communication state: reduce-scatter
1466410 | HMC-1 | clear pending aggregation for flow 15 from child HMC-2
1466410 | HMC-1 | finishes aggregation , computation state: idle, communication state: reduce-scatter
1466411 | HMC-1 | start reducing for flow 15 (from NI 0) to parent HMC-0 (to NI 0) at timestep 4
1467855 | HMC-4 | clear pending aggregation for flow 11 from child HMC-0
1467855 | HMC-4 | finishes aggregation , computation state: idle, communication state: reduce-scatter
1473144 | HMC-7 | finishes reducing for flow 14 (from NI 0) to parent HMC-3 (to NI 0) at timestep 2
1477647 | HMC-3 | receives full reduce for flow 14 from child HMC-7
1477648 | HMC-3 | starts aggregation, computation state: aggregating, communication state: reduce-scatter
1480720 | HMC-3 | clear pending aggregation for flow 14 from child HMC-7
1480720 | HMC-3 | finishes aggregation , computation state: idle, communication state: reduce-scatter
1480721 | HMC-3 | start reducing for flow 14 (from NI 0) to parent HMC-2 (to NI 0) at timestep 3
1481023 | HMC-12 | finishes reducing for flow 0 (from NI 0) to parent HMC-13 (to NI 0) at timestep 2
1485149 | HMC-13 | receives full reduce for flow 0 from child HMC-12
1485150 | HMC-13 | starts aggregation, computation state: aggregating, communication state: reduce-scatter
1487482 | HMC-9 | finishes reducing for flow 8 (from NI 0) to parent HMC-5 (to NI 0) at timestep 2
1488238 | HMC-13 | clear pending aggregation for flow 0 from child HMC-12
1488238 | HMC-13 | finishes aggregation , computation state: idle, communication state: reduce-scatter
1491647 | HMC-1 | finishes reducing for flow 15 (from NI 0) to parent HMC-0 (to NI 0) at timestep 4
1492701 | HMC-0 | receives full reduce for flow 15 from child HMC-1
1492702 | HMC-0 | starts aggregation, computation state: aggregating, communication state: reduce-scatter
1492740 | HMC-15 | finishes reducing for flow 6 (from NI 0) to parent HMC-11 (to NI 0) at timestep 2
1492741 | HMC-15 | start reducing for flow 5 (from NI 0) to parent HMC-11 (to NI 0) at timestep 3
1493534 | HMC-5 | receives full reduce for flow 8 from child HMC-9
1493535 | HMC-5 | starts aggregation, computation state: aggregating, communication state: reduce-scatter
1493643 | HMC-11 | finishes reducing for flow 10 (from NI 0) to parent HMC-7 (to NI 0) at timestep 2
1493938 | HMC-10 | finishes reducing for flow 9 (from NI 0) to parent HMC-14 (to NI 0) at timestep 2
1495790 | HMC-0 | clear pending aggregation for flow 15 from child HMC-1
1495790 | HMC-0 | finishes aggregation , computation state: idle, communication state: reduce-scatter
1495791 | HMC-0 | start reducing for flow 15 (from NI 0) to parent HMC-4 (to NI 0) at timestep 5
1496607 | HMC-5 | clear pending aggregation for flow 8 from child HMC-9
1496607 | HMC-5 | finishes aggregation , computation state: idle, communication state: reduce-scatter
1496774 | HMC-13 | finishes reducing for flow 4 (from NI 0) to parent HMC-9 (to NI 0) at timestep 2
1496775 | HMC-13 | start reducing for flow 0 (from NI 0) to parent HMC-9 (to NI 0) at timestep 3
1499955 | HMC-7 | receives full reduce for flow 10 from child HMC-11
1499956 | HMC-7 | starts aggregation, computation state: aggregating, communication state: reduce-scatter
1500123 | HMC-14 | receives full reduce for flow 9 from child HMC-10
1500124 | HMC-14 | starts aggregation, computation state: aggregating, communication state: reduce-scatter
1502357 | HMC-8 | finishes reducing for flow 1 (from NI 0) to parent HMC-12 (to NI 0) at timestep 2
1503044 | HMC-7 | clear pending aggregation for flow 10 from child HMC-11
1503044 | HMC-7 | finishes aggregation , computation state: idle, communication state: reduce-scatter
1503045 | HMC-7 | start reducing for flow 10 (from NI 0) to parent HMC-3 (to NI 0) at timestep 3
1503196 | HMC-14 | clear pending aggregation for flow 9 from child HMC-10
1503196 | HMC-14 | finishes aggregation , computation state: idle, communication state: reduce-scatter
1503197 | HMC-14 | start reducing for flow 9 (from NI 0) to parent HMC-15 (to NI 0) at timestep 3
1503402 | HMC-9 | receives full reduce for flow 4 from child HMC-13
1503403 | HMC-9 | starts aggregation, computation state: aggregating, communication state: reduce-scatter
1504048 | HMC-11 | receives full reduce for flow 6 from child HMC-15
1504049 | HMC-11 | starts aggregation, computation state: aggregating, communication state: reduce-scatter
1505957 | HMC-3 | finishes reducing for flow 14 (from NI 0) to parent HMC-2 (to NI 0) at timestep 3
1506475 | HMC-9 | clear pending aggregation for flow 4 from child HMC-13
1506475 | HMC-9 | finishes aggregation , computation state: idle, communication state: reduce-scatter
1506476 | HMC-9 | start reducing for flow 4 (from NI 0) to parent HMC-5 (to NI 0) at timestep 3
1507011 | HMC-2 | receives full reduce for flow 14 from child HMC-3
1507012 | HMC-2 | starts aggregation, computation state: aggregating, communication state: reduce-scatter
1507092 | HMC-6 | finishes reducing for flow 13 (from NI 0) to parent HMC-10 (to NI 0) at timestep 2
1507121 | HMC-11 | clear pending aggregation for flow 6 from child HMC-15
1507121 | HMC-11 | finishes aggregation , computation state: idle, communication state: reduce-scatter
1507122 | HMC-11 | start reducing for flow 6 (from NI 0) to parent HMC-7 (to NI 0) at timestep 3
1507317 | HMC-4 | finishes reducing for flow 2 (from NI 0) to parent HMC-8 (to NI 0) at timestep 2
1507318 | HMC-4 | start reducing for flow 3 (from NI 0) to parent HMC-8 (to NI 0) at timestep 3
1508610 | HMC-12 | receives full reduce for flow 1 from child HMC-8
1508611 | HMC-12 | starts aggregation, computation state: aggregating, communication state: reduce-scatter
1509261 | HMC-5 | finishes reducing for flow 12 (from NI 0) to parent HMC-6 (to NI 0) at timestep 2
1509262 | HMC-5 | start reducing for flow 8 (from NI 0) to parent HMC-6 (to NI 0) at timestep 3
1510100 | HMC-2 | clear pending aggregation for flow 14 from child HMC-3
1510100 | HMC-2 | finishes aggregation , computation state: idle, communication state: reduce-scatter
1510101 | HMC-2 | start reducing for flow 14 (from NI 0) to parent HMC-1 (to NI 0) at timestep 4
1511683 | HMC-12 | clear pending aggregation for flow 1 from child HMC-8
1511683 | HMC-12 | finishes aggregation , computation state: idle, communication state: reduce-scatter
1511684 | HMC-12 | start reducing for flow 1 (from NI 0) to parent HMC-13 (to NI 0) at timestep 3
1513406 | HMC-10 | receives full reduce for flow 13 from child HMC-6
1513407 | HMC-10 | starts aggregation, computation state: aggregating, communication state: reduce-scatter
1514884 | HMC-6 | receives full reduce for flow 12 from child HMC-5
1514885 | HMC-6 | starts aggregation, computation state: aggregating, communication state: reduce-scatter
1515547 | HMC-8 | receives full reduce for flow 2 from child HMC-4
1515548 | HMC-8 | starts aggregation, computation state: aggregating, communication state: reduce-scatter
1516495 | HMC-10 | clear pending aggregation for flow 13 from child HMC-6
1516495 | HMC-10 | finishes aggregation , computation state: idle, communication state: reduce-scatter
1516496 | HMC-10 | start reducing for flow 13 (from NI 0) to parent HMC-14 (to NI 0) at timestep 3
1517973 | HMC-6 | clear pending aggregation for flow 12 from child HMC-5
1517973 | HMC-6 | finishes aggregation , computation state: idle, communication state: reduce-scatter
1517974 | HMC-6 | start reducing for flow 12 (from NI 0) to parent HMC-10 (to NI 0) at timestep 3
1518620 | HMC-8 | clear pending aggregation for flow 2 from child HMC-4
1518620 | HMC-8 | finishes aggregation , computation state: idle, communication state: reduce-scatter
1518621 | HMC-8 | start reducing for flow 2 (from NI 0) to parent HMC-12 (to NI 0) at timestep 3
1521027 | HMC-0 | finishes reducing for flow 15 (from NI 0) to parent HMC-4 (to NI 0) at timestep 5
1522540 | HMC-4 | receives full reduce for flow 15 from child HMC-0
1522541 | HMC-4 | starts aggregation, computation state: aggregating, communication state: reduce-scatter
1525629 | HMC-4 | clear pending aggregation for flow 15 from child HMC-0
1525629 | HMC-4 | finishes aggregation , computation state: idle, communication state: reduce-scatter
1528433 | HMC-14 | finishes reducing for flow 9 (from NI 0) to parent HMC-15 (to NI 0) at timestep 3
1529487 | HMC-15 | receives full reduce for flow 9 from child HMC-14
1529488 | HMC-15 | starts aggregation, computation state: aggregating, communication state: reduce-scatter
1532576 | HMC-15 | clear pending aggregation for flow 9 from child HMC-14
1532576 | HMC-15 | finishes aggregation , computation state: idle, communication state: reduce-scatter
1535337 | HMC-2 | finishes reducing for flow 14 (from NI 0) to parent HMC-1 (to NI 0) at timestep 4
1536391 | HMC-1 | receives full reduce for flow 14 from child HMC-2
1536392 | HMC-1 | starts aggregation, computation state: aggregating, communication state: reduce-scatter
1539480 | HMC-1 | clear pending aggregation for flow 14 from child HMC-2
1539480 | HMC-1 | finishes aggregation , computation state: idle, communication state: reduce-scatter
1539481 | HMC-1 | start reducing for flow 14 (from NI 0) to parent HMC-0 (to NI 0) at timestep 5
1543952 | HMC-7 | finishes reducing for flow 10 (from NI 0) to parent HMC-3 (to NI 0) at timestep 3
1548585 | HMC-3 | receives full reduce for flow 10 from child HMC-7
1548586 | HMC-3 | starts aggregation, computation state: aggregating, communication state: reduce-scatter
1551674 | HMC-3 | clear pending aggregation for flow 10 from child HMC-7
1551674 | HMC-3 | finishes aggregation , computation state: idle, communication state: reduce-scatter
1551675 | HMC-3 | start reducing for flow 10 (from NI 0) to parent HMC-2 (to NI 0) at timestep 4
1552389 | HMC-12 | finishes reducing for flow 1 (from NI 0) to parent HMC-13 (to NI 0) at timestep 3
1556086 | HMC-9 | finishes reducing for flow 4 (from NI 0) to parent HMC-5 (to NI 0) at timestep 3
1556368 | HMC-13 | receives full reduce for flow 1 from child HMC-12
1556369 | HMC-13 | starts aggregation, computation state: aggregating, communication state: reduce-scatter
1559457 | HMC-13 | clear pending aggregation for flow 1 from child HMC-12
1559457 | HMC-13 | finishes aggregation , computation state: idle, communication state: reduce-scatter
1561502 | HMC-15 | finishes reducing for flow 5 (from NI 0) to parent HMC-11 (to NI 0) at timestep 3
1561503 | HMC-15 | start reducing for flow 9 (from NI 0) to parent HMC-11 (to NI 0) at timestep 4
1562357 | HMC-11 | finishes reducing for flow 6 (from NI 0) to parent HMC-7 (to NI 0) at timestep 3
1562644 | HMC-5 | receives full reduce for flow 4 from child HMC-9
1562645 | HMC-5 | starts aggregation, computation state: aggregating, communication state: reduce-scatter
1564717 | HMC-1 | finishes reducing for flow 14 (from NI 0) to parent HMC-0 (to NI 0) at timestep 5
1564825 | HMC-10 | finishes reducing for flow 13 (from NI 0) to parent HMC-14 (to NI 0) at timestep 3
1565588 | HMC-13 | finishes reducing for flow 0 (from NI 0) to parent HMC-9 (to NI 0) at timestep 3
1565589 | HMC-13 | start reducing for flow 1 (from NI 0) to parent HMC-9 (to NI 0) at timestep 4
1565733 | HMC-5 | clear pending aggregation for flow 4 from child HMC-9
1565733 | HMC-5 | finishes aggregation , computation state: idle, communication state: reduce-scatter
1565771 | HMC-0 | receives full reduce for flow 14 from child HMC-1
1565772 | HMC-0 | starts aggregation, computation state: aggregating, communication state: reduce-scatter
1568584 | HMC-7 | receives full reduce for flow 6 from child HMC-11
1568585 | HMC-7 | starts aggregation, computation state: aggregating, communication state: reduce-scatter
1568860 | HMC-0 | clear pending aggregation for flow 14 from child HMC-1
1568860 | HMC-0 | finishes aggregation , computation state: idle, communication state: reduce-scatter
1568861 | HMC-0 | start reducing for flow 14 (from NI 0) to parent HMC-4 (to NI 0) at timestep 6
1570660 | HMC-14 | receives full reduce for flow 13 from child HMC-10
1570661 | HMC-14 | starts aggregation, computation state: aggregating, communication state: reduce-scatter
1571657 | HMC-7 | clear pending aggregation for flow 6 from child HMC-11
1571657 | HMC-7 | finishes aggregation , computation state: idle, communication state: reduce-scatter
1571658 | HMC-7 | start reducing for flow 6 (from NI 0) to parent HMC-3 (to NI 0) at timestep 4
1572348 | HMC-9 | receives full reduce for flow 0 from child HMC-13
1572349 | HMC-9 | starts aggregation, computation state: aggregating, communication state: reduce-scatter
1573171 | HMC-11 | receives full reduce for flow 5 from child HMC-15
1573172 | HMC-11 | starts aggregation, computation state: aggregating, communication state: reduce-scatter
1573717 | HMC-14 | clear pending aggregation for flow 13 from child HMC-10
1573717 | HMC-14 | finishes aggregation , computation state: idle, communication state: reduce-scatter
1573718 | HMC-14 | start reducing for flow 13 (from NI 0) to parent HMC-15 (to NI 0) at timestep 4
1574214 | HMC-8 | finishes reducing for flow 2 (from NI 0) to parent HMC-12 (to NI 0) at timestep 3
1575421 | HMC-9 | clear pending aggregation for flow 0 from child HMC-13
1575421 | HMC-9 | finishes aggregation , computation state: idle, communication state: reduce-scatter
1575422 | HMC-9 | start reducing for flow 0 (from NI 0) to parent HMC-5 (to NI 0) at timestep 4
1576244 | HMC-11 | clear pending aggregation for flow 5 from child HMC-15
1576244 | HMC-11 | finishes aggregation , computation state: idle, communication state: reduce-scatter
1576245 | HMC-11 | start reducing for flow 5 (from NI 0) to parent HMC-7 (to NI 0) at timestep 4
1576911 | HMC-3 | finishes reducing for flow 10 (from NI 0) to parent HMC-2 (to NI 0) at timestep 4
1577965 | HMC-2 | receives full reduce for flow 10 from child HMC-3
1577966 | HMC-2 | starts aggregation, computation state: aggregating, communication state: reduce-scatter
1579935 | HMC-6 | finishes reducing for flow 12 (from NI 0) to parent HMC-10 (to NI 0) at timestep 3
1580361 | HMC-12 | receives full reduce for flow 2 from child HMC-8
1580362 | HMC-12 | starts aggregation, computation state: aggregating, communication state: reduce-scatter
1580940 | HMC-4 | finishes reducing for flow 3 (from NI 0) to parent HMC-8 (to NI 0) at timestep 3
1580941 | HMC-4 | start reducing for flow 7 (from NI 0) to parent HMC-8 (to NI 0) at timestep 4
1581054 | HMC-2 | clear pending aggregation for flow 10 from child HMC-3
1581054 | HMC-2 | finishes aggregation , computation state: idle, communication state: reduce-scatter
1581055 | HMC-2 | start reducing for flow 10 (from NI 0) to parent HMC-1 (to NI 0) at timestep 5
1582764 | HMC-5 | finishes reducing for flow 8 (from NI 0) to parent HMC-6 (to NI 0) at timestep 3
1582765 | HMC-5 | start reducing for flow 4 (from NI 0) to parent HMC-6 (to NI 0) at timestep 4
1583434 | HMC-12 | clear pending aggregation for flow 2 from child HMC-8
1583434 | HMC-12 | finishes aggregation , computation state: idle, communication state: reduce-scatter
1583435 | HMC-12 | start reducing for flow 2 (from NI 0) to parent HMC-13 (to NI 0) at timestep 4
1586059 | HMC-10 | receives full reduce for flow 12 from child HMC-6
1586060 | HMC-10 | starts aggregation, computation state: aggregating, communication state: reduce-scatter
1588065 | HMC-6 | receives full reduce for flow 8 from child HMC-5
1588066 | HMC-6 | starts aggregation, computation state: aggregating, communication state: reduce-scatter
1589132 | HMC-10 | clear pending aggregation for flow 12 from child HMC-6
1589132 | HMC-10 | finishes aggregation , computation state: idle, communication state: reduce-scatter
1589133 | HMC-10 | start reducing for flow 12 (from NI 0) to parent HMC-14 (to NI 0) at timestep 4
1589151 | HMC-8 | receives full reduce for flow 3 from child HMC-4
1589152 | HMC-8 | starts aggregation, computation state: aggregating, communication state: reduce-scatter
1591138 | HMC-6 | clear pending aggregation for flow 8 from child HMC-5
1591138 | HMC-6 | finishes aggregation , computation state: idle, communication state: reduce-scatter
1591139 | HMC-6 | start reducing for flow 8 (from NI 0) to parent HMC-10 (to NI 0) at timestep 4
1592224 | HMC-8 | clear pending aggregation for flow 3 from child HMC-4
1592224 | HMC-8 | finishes aggregation , computation state: idle, communication state: reduce-scatter
1592225 | HMC-8 | start reducing for flow 3 (from NI 0) to parent HMC-12 (to NI 0) at timestep 4
1594097 | HMC-0 | finishes reducing for flow 14 (from NI 0) to parent HMC-4 (to NI 0) at timestep 6
1595610 | HMC-4 | receives full reduce for flow 14 from child HMC-0
1595611 | HMC-4 | starts aggregation, computation state: aggregating, communication state: reduce-scatter
1598699 | HMC-4 | clear pending aggregation for flow 14 from child HMC-0
1598699 | HMC-4 | finishes aggregation , computation state: idle, communication state: reduce-scatter
1598954 | HMC-14 | finishes reducing for flow 13 (from NI 0) to parent HMC-15 (to NI 0) at timestep 4
1600008 | HMC-15 | receives full reduce for flow 13 from child HMC-14
1600009 | HMC-15 | starts aggregation, computation state: aggregating, communication state: reduce-scatter
1603097 | HMC-15 | clear pending aggregation for flow 13 from child HMC-14
1603097 | HMC-15 | finishes aggregation , computation state: idle, communication state: reduce-scatter
1606291 | HMC-2 | finishes reducing for flow 10 (from NI 0) to parent HMC-1 (to NI 0) at timestep 5
1607345 | HMC-1 | receives full reduce for flow 10 from child HMC-2
1607346 | HMC-1 | starts aggregation, computation state: aggregating, communication state: reduce-scatter
1610434 | HMC-1 | clear pending aggregation for flow 10 from child HMC-2
1610434 | HMC-1 | finishes aggregation , computation state: idle, communication state: reduce-scatter
1610435 | HMC-1 | start reducing for flow 10 (from NI 0) to parent HMC-0 (to NI 0) at timestep 6
1612735 | HMC-7 | finishes reducing for flow 6 (from NI 0) to parent HMC-3 (to NI 0) at timestep 4
1617408 | HMC-3 | receives full reduce for flow 6 from child HMC-7
1617409 | HMC-3 | starts aggregation, computation state: aggregating, communication state: reduce-scatter
1620497 | HMC-3 | clear pending aggregation for flow 6 from child HMC-7
1620497 | HMC-3 | finishes aggregation , computation state: idle, communication state: reduce-scatter
1620498 | HMC-3 | start reducing for flow 6 (from NI 0) to parent HMC-2 (to NI 0) at timestep 5
1623499 | HMC-12 | finishes reducing for flow 2 (from NI 0) to parent HMC-13 (to NI 0) at timestep 4
1624404 | HMC-9 | finishes reducing for flow 0 (from NI 0) to parent HMC-5 (to NI 0) at timestep 4
1627511 | HMC-13 | receives full reduce for flow 2 from child HMC-12
1627512 | HMC-13 | starts aggregation, computation state: aggregating, communication state: reduce-scatter
1630569 | HMC-15 | finishes reducing for flow 9 (from NI 0) to parent HMC-11 (to NI 0) at timestep 4
1630570 | HMC-15 | start reducing for flow 13 (from NI 0) to parent HMC-11 (to NI 0) at timestep 5
1630600 | HMC-13 | clear pending aggregation for flow 2 from child HMC-12
1630600 | HMC-13 | finishes aggregation , computation state: idle, communication state: reduce-scatter
1630701 | HMC-5 | receives full reduce for flow 0 from child HMC-9
1630702 | HMC-5 | starts aggregation, computation state: aggregating, communication state: reduce-scatter
1631323 | HMC-11 | finishes reducing for flow 5 (from NI 0) to parent HMC-7 (to NI 0) at timestep 4
1633774 | HMC-5 | clear pending aggregation for flow 0 from child HMC-9
1633774 | HMC-5 | finishes aggregation , computation state: idle, communication state: reduce-scatter
1633834 | HMC-13 | finishes reducing for flow 1 (from NI 0) to parent HMC-9 (to NI 0) at timestep 4
1633835 | HMC-13 | start reducing for flow 2 (from NI 0) to parent HMC-9 (to NI 0) at timestep 5
1635671 | HMC-1 | finishes reducing for flow 10 (from NI 0) to parent HMC-0 (to NI 0) at timestep 6
1636725 | HMC-0 | receives full reduce for flow 10 from child HMC-1
1636726 | HMC-0 | starts aggregation, computation state: aggregating, communication state: reduce-scatter
1636854 | HMC-10 | finishes reducing for flow 12 (from NI 0) to parent HMC-14 (to NI 0) at timestep 4
1637297 | HMC-7 | receives full reduce for flow 5 from child HMC-11
1637298 | HMC-7 | starts aggregation, computation state: aggregating, communication state: reduce-scatter
1639814 | HMC-0 | clear pending aggregation for flow 10 from child HMC-1
1639814 | HMC-0 | finishes aggregation , computation state: idle, communication state: reduce-scatter
1639815 | HMC-0 | start reducing for flow 10 (from NI 0) to parent HMC-4 (to NI 0) at timestep 7
1640370 | HMC-7 | clear pending aggregation for flow 5 from child HMC-11
1640370 | HMC-7 | finishes aggregation , computation state: idle, communication state: reduce-scatter
1640371 | HMC-7 | start reducing for flow 5 (from NI 0) to parent HMC-3 (to NI 0) at timestep 5
1640829 | HMC-9 | receives full reduce for flow 1 from child HMC-13
1640830 | HMC-9 | starts aggregation, computation state: aggregating, communication state: reduce-scatter
1642123 | HMC-11 | receives full reduce for flow 9 from child HMC-15
1642124 | HMC-11 | starts aggregation, computation state: aggregating, communication state: reduce-scatter
1642671 | HMC-14 | receives full reduce for flow 12 from child HMC-10
1642672 | HMC-14 | starts aggregation, computation state: aggregating, communication state: reduce-scatter
1643902 | HMC-9 | clear pending aggregation for flow 1 from child HMC-13
1643902 | HMC-9 | finishes aggregation , computation state: idle, communication state: reduce-scatter
1643903 | HMC-9 | start reducing for flow 1 (from NI 0) to parent HMC-5 (to NI 0) at timestep 5
1645196 | HMC-11 | clear pending aggregation for flow 9 from child HMC-15
1645196 | HMC-11 | finishes aggregation , computation state: idle, communication state: reduce-scatter
1645197 | HMC-11 | start reducing for flow 9 (from NI 0) to parent HMC-7 (to NI 0) at timestep 5
1645728 | HMC-14 | clear pending aggregation for flow 12 from child HMC-10
1645728 | HMC-14 | finishes aggregation , computation state: idle, communication state: reduce-scatter
1645729 | HMC-14 | start reducing for flow 12 (from NI 0) to parent HMC-15 (to NI 0) at timestep 5
1645734 | HMC-3 | finishes reducing for flow 6 (from NI 0) to parent HMC-2 (to NI 0) at timestep 5
1646788 | HMC-2 | receives full reduce for flow 6 from child HMC-3
1646789 | HMC-2 | starts aggregation, computation state: aggregating, communication state: reduce-scatter
1648249 | HMC-8 | finishes reducing for flow 3 (from NI 0) to parent HMC-12 (to NI 0) at timestep 4
1649877 | HMC-2 | clear pending aggregation for flow 6 from child HMC-3
1649877 | HMC-2 | finishes aggregation , computation state: idle, communication state: reduce-scatter
1649878 | HMC-2 | start reducing for flow 6 (from NI 0) to parent HMC-1 (to NI 0) at timestep 6
1651732 | HMC-6 | finishes reducing for flow 8 (from NI 0) to parent HMC-10 (to NI 0) at timestep 4
1653719 | HMC-4 | finishes reducing for flow 7 (from NI 0) to parent HMC-8 (to NI 0) at timestep 4
1653720 | HMC-4 | start reducing for flow 11 (from NI 0) to parent HMC-8 (to NI 0) at timestep 5
1654472 | HMC-12 | receives full reduce for flow 3 from child HMC-8
1654473 | HMC-12 | starts aggregation, computation state: aggregating, communication state: reduce-scatter
1655231 | HMC-5 | finishes reducing for flow 4 (from NI 0) to parent HMC-6 (to NI 0) at timestep 4
1655232 | HMC-5 | start reducing for flow 0 (from NI 0) to parent HMC-6 (to NI 0) at timestep 5
1657561 | HMC-12 | clear pending aggregation for flow 3 from child HMC-8
1657561 | HMC-12 | finishes aggregation , computation state: idle, communication state: reduce-scatter
1657562 | HMC-12 | start reducing for flow 3 (from NI 0) to parent HMC-13 (to NI 0) at timestep 5
1658062 | HMC-10 | receives full reduce for flow 8 from child HMC-6
1658063 | HMC-10 | starts aggregation, computation state: aggregating, communication state: reduce-scatter
1660667 | HMC-6 | receives full reduce for flow 4 from child HMC-5
1660668 | HMC-6 | starts aggregation, computation state: aggregating, communication state: reduce-scatter
1661135 | HMC-10 | clear pending aggregation for flow 8 from child HMC-6
1661135 | HMC-10 | finishes aggregation , computation state: idle, communication state: reduce-scatter
1661136 | HMC-10 | start reducing for flow 8 (from NI 0) to parent HMC-14 (to NI 0) at timestep 5
1661940 | HMC-8 | receives full reduce for flow 7 from child HMC-4
1661941 | HMC-8 | starts aggregation, computation state: aggregating, communication state: reduce-scatter
1663756 | HMC-6 | clear pending aggregation for flow 4 from child HMC-5
1663756 | HMC-6 | finishes aggregation , computation state: idle, communication state: reduce-scatter
1663757 | HMC-6 | start reducing for flow 4 (from NI 0) to parent HMC-10 (to NI 0) at timestep 5
1665013 | HMC-8 | clear pending aggregation for flow 7 from child HMC-4
1665013 | HMC-8 | finishes aggregation , computation state: idle, communication state: reduce-scatter
1665014 | HMC-8 | start reducing for flow 7 (from NI 0) to parent HMC-12 (to NI 0) at timestep 5
1665051 | HMC-0 | finishes reducing for flow 10 (from NI 0) to parent HMC-4 (to NI 0) at timestep 7
1666564 | HMC-4 | receives full reduce for flow 10 from child HMC-0
1666565 | HMC-4 | starts aggregation, computation state: aggregating, communication state: reduce-scatter
1669653 | HMC-4 | clear pending aggregation for flow 10 from child HMC-0
1669653 | HMC-4 | finishes aggregation , computation state: idle, communication state: reduce-scatter
1670965 | HMC-14 | finishes reducing for flow 12 (from NI 0) to parent HMC-15 (to NI 0) at timestep 5
1672019 | HMC-15 | receives full reduce for flow 12 from child HMC-14
1672020 | HMC-15 | starts aggregation, computation state: aggregating, communication state: reduce-scatter
1675108 | HMC-15 | clear pending aggregation for flow 12 from child HMC-14
1675108 | HMC-15 | finishes aggregation , computation state: idle, communication state: reduce-scatter
1675114 | HMC-2 | finishes reducing for flow 6 (from NI 0) to parent HMC-1 (to NI 0) at timestep 6
1676168 | HMC-1 | receives full reduce for flow 6 from child HMC-2
1676169 | HMC-1 | starts aggregation, computation state: aggregating, communication state: reduce-scatter
1679257 | HMC-1 | clear pending aggregation for flow 6 from child HMC-2
1679257 | HMC-1 | finishes aggregation , computation state: idle, communication state: reduce-scatter
1679258 | HMC-1 | start reducing for flow 6 (from NI 0) to parent HMC-0 (to NI 0) at timestep 7
1681616 | HMC-7 | finishes reducing for flow 5 (from NI 0) to parent HMC-3 (to NI 0) at timestep 5
1686298 | HMC-3 | receives full reduce for flow 5 from child HMC-7
1686299 | HMC-3 | starts aggregation, computation state: aggregating, communication state: reduce-scatter
1689387 | HMC-3 | clear pending aggregation for flow 5 from child HMC-7
1689387 | HMC-3 | finishes aggregation , computation state: idle, communication state: reduce-scatter
1689388 | HMC-3 | start reducing for flow 5 (from NI 0) to parent HMC-2 (to NI 0) at timestep 6
1692885 | HMC-9 | finishes reducing for flow 1 (from NI 0) to parent HMC-5 (to NI 0) at timestep 5
1699162 | HMC-5 | receives full reduce for flow 1 from child HMC-9
1699163 | HMC-5 | starts aggregation, computation state: aggregating, communication state: reduce-scatter
1699614 | HMC-12 | finishes reducing for flow 3 (from NI 0) to parent HMC-13 (to NI 0) at timestep 5
1699626 | HMC-15 | finishes reducing for flow 13 (from NI 0) to parent HMC-11 (to NI 0) at timestep 5
1699627 | HMC-15 | start reducing for flow 12 (from NI 0) to parent HMC-11 (to NI 0) at timestep 6
1700126 | HMC-11 | finishes reducing for flow 9 (from NI 0) to parent HMC-7 (to NI 0) at timestep 5
1702235 | HMC-5 | clear pending aggregation for flow 1 from child HMC-9
1702235 | HMC-5 | finishes aggregation , computation state: idle, communication state: reduce-scatter
1702379 | HMC-13 | finishes reducing for flow 2 (from NI 0) to parent HMC-9 (to NI 0) at timestep 5
1703744 | HMC-13 | receives full reduce for flow 3 from child HMC-12
1703745 | HMC-13 | starts aggregation, computation state: aggregating, communication state: reduce-scatter
1704494 | HMC-1 | finishes reducing for flow 6 (from NI 0) to parent HMC-0 (to NI 0) at timestep 7
1705548 | HMC-0 | receives full reduce for flow 6 from child HMC-1
1705549 | HMC-0 | starts aggregation, computation state: aggregating, communication state: reduce-scatter
1706404 | HMC-7 | receives full reduce for flow 9 from child HMC-11
1706405 | HMC-7 | starts aggregation, computation state: aggregating, communication state: reduce-scatter
1706833 | HMC-13 | clear pending aggregation for flow 3 from child HMC-12
1706833 | HMC-13 | finishes aggregation , computation state: idle, communication state: reduce-scatter
1706834 | HMC-13 | start reducing for flow 3 (from NI 0) to parent HMC-9 (to NI 0) at timestep 6
1708637 | HMC-0 | clear pending aggregation for flow 6 from child HMC-1
1708637 | HMC-0 | finishes aggregation , computation state: idle, communication state: reduce-scatter
1708638 | HMC-0 | start reducing for flow 6 (from NI 0) to parent HMC-4 (to NI 0) at timestep 8
1709325 | HMC-10 | finishes reducing for flow 8 (from NI 0) to parent HMC-14 (to NI 0) at timestep 5
1709403 | HMC-9 | receives full reduce for flow 2 from child HMC-13
1709404 | HMC-9 | starts aggregation, computation state: aggregating, communication state: reduce-scatter
1709493 | HMC-7 | clear pending aggregation for flow 9 from child HMC-11
1709493 | HMC-7 | finishes aggregation , computation state: idle, communication state: reduce-scatter
1709494 | HMC-7 | start reducing for flow 9 (from NI 0) to parent HMC-3 (to NI 0) at timestep 6
1711111 | HMC-11 | receives full reduce for flow 13 from child HMC-15
1711112 | HMC-11 | starts aggregation, computation state: aggregating, communication state: reduce-scatter
1712492 | HMC-9 | clear pending aggregation for flow 2 from child HMC-13
1712492 | HMC-9 | finishes aggregation , computation state: idle, communication state: reduce-scatter
1712493 | HMC-9 | start reducing for flow 2 (from NI 0) to parent HMC-5 (to NI 0) at timestep 6
1714184 | HMC-11 | clear pending aggregation for flow 13 from child HMC-15
1714184 | HMC-11 | finishes aggregation , computation state: idle, communication state: reduce-scatter
1714185 | HMC-11 | start reducing for flow 13 (from NI 0) to parent HMC-7 (to NI 0) at timestep 6
1714624 | HMC-3 | finishes reducing for flow 5 (from NI 0) to parent HMC-2 (to NI 0) at timestep 6
1715678 | HMC-2 | receives full reduce for flow 5 from child HMC-3
1715679 | HMC-2 | starts aggregation, computation state: aggregating, communication state: reduce-scatter
1715958 | HMC-14 | receives full reduce for flow 8 from child HMC-10
1715959 | HMC-14 | starts aggregation, computation state: aggregating, communication state: reduce-scatter
1718767 | HMC-2 | clear pending aggregation for flow 5 from child HMC-3
1718767 | HMC-2 | finishes aggregation , computation state: idle, communication state: reduce-scatter
1718768 | HMC-2 | start reducing for flow 5 (from NI 0) to parent HMC-1 (to NI 0) at timestep 7
1719031 | HMC-14 | clear pending aggregation for flow 8 from child HMC-10
1719031 | HMC-14 | finishes aggregation , computation state: idle, communication state: reduce-scatter
1719032 | HMC-14 | start reducing for flow 8 (from NI 0) to parent HMC-15 (to NI 0) at timestep 6
1720448 | HMC-8 | finishes reducing for flow 7 (from NI 0) to parent HMC-12 (to NI 0) at timestep 5
1724949 | HMC-6 | finishes reducing for flow 4 (from NI 0) to parent HMC-10 (to NI 0) at timestep 5
1726379 | HMC-4 | finishes reducing for flow 11 (from NI 0) to parent HMC-8 (to NI 0) at timestep 5
1726380 | HMC-4 | start reducing for flow 15 (from NI 0) to parent HMC-8 (to NI 0) at timestep 6
1726994 | HMC-12 | receives full reduce for flow 7 from child HMC-8
1726995 | HMC-12 | starts aggregation, computation state: aggregating, communication state: reduce-scatter
1727755 | HMC-5 | finishes reducing for flow 0 (from NI 0) to parent HMC-6 (to NI 0) at timestep 5
1727756 | HMC-5 | start reducing for flow 1 (from NI 0) to parent HMC-6 (to NI 0) at timestep 6
1730067 | HMC-12 | clear pending aggregation for flow 7 from child HMC-8
1730067 | HMC-12 | finishes aggregation , computation state: idle, communication state: reduce-scatter
1730068 | HMC-12 | start reducing for flow 7 (from NI 0) to parent HMC-13 (to NI 0) at timestep 6
1731428 | HMC-10 | receives full reduce for flow 4 from child HMC-6
1731429 | HMC-10 | starts aggregation, computation state: aggregating, communication state: reduce-scatter
1733304 | HMC-6 | receives full reduce for flow 0 from child HMC-5
1733305 | HMC-6 | starts aggregation, computation state: aggregating, communication state: reduce-scatter
1733874 | HMC-0 | finishes reducing for flow 6 (from NI 0) to parent HMC-4 (to NI 0) at timestep 8
1734517 | HMC-10 | clear pending aggregation for flow 4 from child HMC-6
1734517 | HMC-10 | finishes aggregation , computation state: idle, communication state: reduce-scatter
1734518 | HMC-10 | start reducing for flow 4 (from NI 0) to parent HMC-14 (to NI 0) at timestep 6
1734717 | HMC-8 | receives full reduce for flow 11 from child HMC-4
1734718 | HMC-8 | starts aggregation, computation state: aggregating, communication state: reduce-scatter
1735387 | HMC-4 | receives full reduce for flow 6 from child HMC-0
1735388 | HMC-4 | starts aggregation, computation state: aggregating, communication state: reduce-scatter
1736393 | HMC-6 | clear pending aggregation for flow 0 from child HMC-5
1736393 | HMC-6 | finishes aggregation , computation state: idle, communication state: reduce-scatter
1736394 | HMC-6 | start reducing for flow 0 (from NI 0) to parent HMC-10 (to NI 0) at timestep 6
1737790 | HMC-8 | clear pending aggregation for flow 11 from child HMC-4
1737790 | HMC-8 | finishes aggregation , computation state: idle, communication state: reduce-scatter
1737791 | HMC-8 | start reducing for flow 11 (from NI 0) to parent HMC-12 (to NI 0) at timestep 6
1738476 | HMC-4 | clear pending aggregation for flow 6 from child HMC-0
1738476 | HMC-4 | finishes aggregation , computation state: idle, communication state: reduce-scatter
1744004 | HMC-2 | finishes reducing for flow 5 (from NI 0) to parent HMC-1 (to NI 0) at timestep 7
1744268 | HMC-14 | finishes reducing for flow 8 (from NI 0) to parent HMC-15 (to NI 0) at timestep 6
1745058 | HMC-1 | receives full reduce for flow 5 from child HMC-2
1745059 | HMC-1 | starts aggregation, computation state: aggregating, communication state: reduce-scatter
1745322 | HMC-15 | receives full reduce for flow 8 from child HMC-14
1745323 | HMC-15 | starts aggregation, computation state: aggregating, communication state: reduce-scatter
1748147 | HMC-1 | clear pending aggregation for flow 5 from child HMC-2
1748147 | HMC-1 | finishes aggregation , computation state: idle, communication state: reduce-scatter
1748148 | HMC-1 | start reducing for flow 5 (from NI 0) to parent HMC-0 (to NI 0) at timestep 8
1748411 | HMC-15 | clear pending aggregation for flow 8 from child HMC-14
1748411 | HMC-15 | finishes aggregation , computation state: idle, communication state: reduce-scatter
1751394 | HMC-7 | finishes reducing for flow 9 (from NI 0) to parent HMC-3 (to NI 0) at timestep 6
1755971 | HMC-3 | receives full reduce for flow 9 from child HMC-7
1755972 | HMC-3 | starts aggregation, computation state: aggregating, communication state: reduce-scatter
1759044 | HMC-3 | clear pending aggregation for flow 9 from child HMC-7
1759044 | HMC-3 | finishes aggregation , computation state: idle, communication state: reduce-scatter
1759045 | HMC-3 | start reducing for flow 9 (from NI 0) to parent HMC-2 (to NI 0) at timestep 7
1761463 | HMC-9 | finishes reducing for flow 2 (from NI 0) to parent HMC-5 (to NI 0) at timestep 6
1767885 | HMC-5 | receives full reduce for flow 2 from child HMC-9
1767886 | HMC-5 | starts aggregation, computation state: aggregating, communication state: reduce-scatter
1768345 | HMC-15 | finishes reducing for flow 12 (from NI 0) to parent HMC-11 (to NI 0) at timestep 6
1768346 | HMC-15 | start reducing for flow 8 (from NI 0) to parent HMC-11 (to NI 0) at timestep 7
1769907 | HMC-11 | finishes reducing for flow 13 (from NI 0) to parent HMC-7 (to NI 0) at timestep 6
1770958 | HMC-5 | clear pending aggregation for flow 2 from child HMC-9
1770958 | HMC-5 | finishes aggregation , computation state: idle, communication state: reduce-scatter
1771008 | HMC-13 | finishes reducing for flow 3 (from NI 0) to parent HMC-9 (to NI 0) at timestep 6
1771371 | HMC-12 | finishes reducing for flow 7 (from NI 0) to parent HMC-13 (to NI 0) at timestep 6
1773384 | HMC-1 | finishes reducing for flow 5 (from NI 0) to parent HMC-0 (to NI 0) at timestep 8
1774438 | HMC-0 | receives full reduce for flow 5 from child HMC-1
1774439 | HMC-0 | starts aggregation, computation state: aggregating, communication state: reduce-scatter
1775493 | HMC-13 | receives full reduce for flow 7 from child HMC-12
1775494 | HMC-13 | starts aggregation, computation state: aggregating, communication state: reduce-scatter
1776083 | HMC-7 | receives full reduce for flow 13 from child HMC-11
1776084 | HMC-7 | starts aggregation, computation state: aggregating, communication state: reduce-scatter
1777527 | HMC-0 | clear pending aggregation for flow 5 from child HMC-1
1777527 | HMC-0 | finishes aggregation , computation state: idle, communication state: reduce-scatter
1777528 | HMC-0 | start reducing for flow 5 (from NI 0) to parent HMC-4 (to NI 0) at timestep 9
1777810 | HMC-9 | receives full reduce for flow 3 from child HMC-13
1777811 | HMC-9 | starts aggregation, computation state: aggregating, communication state: reduce-scatter
1778582 | HMC-13 | clear pending aggregation for flow 7 from child HMC-12
1778582 | HMC-13 | finishes aggregation , computation state: idle, communication state: reduce-scatter
1778583 | HMC-13 | start reducing for flow 7 (from NI 0) to parent HMC-9 (to NI 0) at timestep 7
1779120 | HMC-11 | receives full reduce for flow 12 from child HMC-15
1779121 | HMC-11 | starts aggregation, computation state: aggregating, communication state: reduce-scatter
1779156 | HMC-7 | clear pending aggregation for flow 13 from child HMC-11
1779156 | HMC-7 | finishes aggregation , computation state: idle, communication state: reduce-scatter
1779157 | HMC-7 | start reducing for flow 13 (from NI 0) to parent HMC-3 (to NI 0) at timestep 7
1780883 | HMC-9 | clear pending aggregation for flow 3 from child HMC-13
1780883 | HMC-9 | finishes aggregation , computation state: idle, communication state: reduce-scatter
1780884 | HMC-9 | start reducing for flow 3 (from NI 0) to parent HMC-5 (to NI 0) at timestep 7
1782209 | HMC-11 | clear pending aggregation for flow 12 from child HMC-15
1782209 | HMC-11 | finishes aggregation , computation state: idle, communication state: reduce-scatter
1782210 | HMC-11 | start reducing for flow 12 (from NI 0) to parent HMC-7 (to NI 0) at timestep 7
1782446 | HMC-10 | finishes reducing for flow 4 (from NI 0) to parent HMC-14 (to NI 0) at timestep 6
1784281 | HMC-3 | finishes reducing for flow 9 (from NI 0) to parent HMC-2 (to NI 0) at timestep 7
1785335 | HMC-2 | receives full reduce for flow 9 from child HMC-3
1785336 | HMC-2 | starts aggregation, computation state: aggregating, communication state: reduce-scatter
1788424 | HMC-2 | clear pending aggregation for flow 9 from child HMC-3
1788424 | HMC-2 | finishes aggregation , computation state: idle, communication state: reduce-scatter
1788425 | HMC-2 | start reducing for flow 9 (from NI 0) to parent HMC-1 (to NI 0) at timestep 8
1788697 | HMC-14 | receives full reduce for flow 4 from child HMC-10
1788698 | HMC-14 | starts aggregation, computation state: aggregating, communication state: reduce-scatter
1791770 | HMC-14 | clear pending aggregation for flow 4 from child HMC-10
1791770 | HMC-14 | finishes aggregation , computation state: idle, communication state: reduce-scatter
1791771 | HMC-14 | start reducing for flow 4 (from NI 0) to parent HMC-15 (to NI 0) at timestep 7
1794608 | HMC-8 | finishes reducing for flow 11 (from NI 0) to parent HMC-12 (to NI 0) at timestep 6
1798814 | HMC-6 | finishes reducing for flow 0 (from NI 0) to parent HMC-10 (to NI 0) at timestep 6
1800612 | HMC-4 | finishes reducing for flow 15 (from NI 0) to parent HMC-8 (to NI 0) at timestep 6
1800613 | HMC-4 | start reducing for flow 14 (from NI 0) to parent HMC-8 (to NI 0) at timestep 7
1800714 | HMC-12 | receives full reduce for flow 11 from child HMC-8
1800715 | HMC-12 | starts aggregation, computation state: aggregating, communication state: reduce-scatter
1801432 | HMC-5 | finishes reducing for flow 1 (from NI 0) to parent HMC-6 (to NI 0) at timestep 6
1801433 | HMC-5 | start reducing for flow 2 (from NI 0) to parent HMC-6 (to NI 0) at timestep 7
1802764 | HMC-0 | finishes reducing for flow 5 (from NI 0) to parent HMC-4 (to NI 0) at timestep 9
1803787 | HMC-12 | clear pending aggregation for flow 11 from child HMC-8
1803787 | HMC-12 | finishes aggregation , computation state: idle, communication state: reduce-scatter
1803788 | HMC-12 | start reducing for flow 11 (from NI 0) to parent HMC-13 (to NI 0) at timestep 7
1804277 | HMC-4 | receives full reduce for flow 5 from child HMC-0
1804278 | HMC-4 | starts aggregation, computation state: aggregating, communication state: reduce-scatter
1804986 | HMC-10 | receives full reduce for flow 0 from child HMC-6
1804987 | HMC-10 | starts aggregation, computation state: aggregating, communication state: reduce-scatter
1807366 | HMC-4 | clear pending aggregation for flow 5 from child HMC-0
1807366 | HMC-4 | finishes aggregation , computation state: idle, communication state: reduce-scatter
1807411 | HMC-6 | receives full reduce for flow 1 from child HMC-5
1807412 | HMC-6 | starts aggregation, computation state: aggregating, communication state: reduce-scatter
1808059 | HMC-10 | clear pending aggregation for flow 0 from child HMC-6
1808059 | HMC-10 | finishes aggregation , computation state: idle, communication state: reduce-scatter
1808060 | HMC-10 | start reducing for flow 0 (from NI 0) to parent HMC-14 (to NI 0) at timestep 7
1808784 | HMC-8 | receives full reduce for flow 15 from child HMC-4
1808785 | HMC-8 | starts aggregation, computation state: aggregating, communication state: reduce-scatter
1810500 | HMC-6 | clear pending aggregation for flow 1 from child HMC-5
1810500 | HMC-6 | finishes aggregation , computation state: idle, communication state: reduce-scatter
1810501 | HMC-6 | start reducing for flow 1 (from NI 0) to parent HMC-10 (to NI 0) at timestep 7
1811857 | HMC-8 | clear pending aggregation for flow 15 from child HMC-4
1811857 | HMC-8 | finishes aggregation , computation state: idle, communication state: reduce-scatter
1811858 | HMC-8 | start reducing for flow 15 (from NI 0) to parent HMC-12 (to NI 0) at timestep 7
1813661 | HMC-2 | finishes reducing for flow 9 (from NI 0) to parent HMC-1 (to NI 0) at timestep 8
1814715 | HMC-1 | receives full reduce for flow 9 from child HMC-2
1814716 | HMC-1 | starts aggregation, computation state: aggregating, communication state: reduce-scatter
1817007 | HMC-14 | finishes reducing for flow 4 (from NI 0) to parent HMC-15 (to NI 0) at timestep 7
1817804 | HMC-1 | clear pending aggregation for flow 9 from child HMC-2
1817804 | HMC-1 | finishes aggregation , computation state: idle, communication state: reduce-scatter
1817805 | HMC-1 | start reducing for flow 9 (from NI 0) to parent HMC-0 (to NI 0) at timestep 9
1818061 | HMC-15 | receives full reduce for flow 4 from child HMC-14
1818062 | HMC-15 | starts aggregation, computation state: aggregating, communication state: reduce-scatter
1821150 | HMC-15 | clear pending aggregation for flow 4 from child HMC-14
1821150 | HMC-15 | finishes aggregation , computation state: idle, communication state: reduce-scatter
1822044 | HMC-7 | finishes reducing for flow 13 (from NI 0) to parent HMC-3 (to NI 0) at timestep 7
1826475 | HMC-3 | receives full reduce for flow 13 from child HMC-7
1826476 | HMC-3 | starts aggregation, computation state: aggregating, communication state: reduce-scatter
1829564 | HMC-3 | clear pending aggregation for flow 13 from child HMC-7
1829564 | HMC-3 | finishes aggregation , computation state: idle, communication state: reduce-scatter
1829565 | HMC-3 | start reducing for flow 13 (from NI 0) to parent HMC-2 (to NI 0) at timestep 8
1830429 | HMC-9 | finishes reducing for flow 3 (from NI 0) to parent HMC-5 (to NI 0) at timestep 7
1833442 | HMC-15 | finishes reducing for flow 8 (from NI 0) to parent HMC-11 (to NI 0) at timestep 7
1833443 | HMC-15 | start reducing for flow 4 (from NI 0) to parent HMC-11 (to NI 0) at timestep 8
1836961 | HMC-5 | receives full reduce for flow 3 from child HMC-9
1836962 | HMC-5 | starts aggregation, computation state: aggregating, communication state: reduce-scatter
1837643 | HMC-11 | finishes reducing for flow 12 (from NI 0) to parent HMC-7 (to NI 0) at timestep 7
1840050 | HMC-5 | clear pending aggregation for flow 3 from child HMC-9
1840050 | HMC-5 | finishes aggregation , computation state: idle, communication state: reduce-scatter
1843041 | HMC-1 | finishes reducing for flow 9 (from NI 0) to parent HMC-0 (to NI 0) at timestep 9
1843121 | HMC-13 | finishes reducing for flow 7 (from NI 0) to parent HMC-9 (to NI 0) at timestep 7
1843475 | HMC-7 | receives full reduce for flow 12 from child HMC-11
1843476 | HMC-7 | starts aggregation, computation state: aggregating, communication state: reduce-scatter
1844095 | HMC-0 | receives full reduce for flow 9 from child HMC-1
1844096 | HMC-0 | starts aggregation, computation state: aggregating, communication state: reduce-scatter
1844788 | HMC-11 | receives full reduce for flow 8 from child HMC-15
[...]
3181614 | HMC-7 | finishes gather for flow 5 (from NI 0) to child HMC-11 (to NI 0) at timestep 26
3182033 | HMC-13 | finishes gather for flow 3 (from NI 0) to child HMC-12 (to NI 0) at timestep 25
3182034 | HMC-13 | start gathering for flow 2 (from NI 0) to child HMC-12 (to NI 0) at timestep 26
3182318 | HMC-8 | receives full gather for flow 7 from parent HMC-12
3182319 | HMC-8 | start gathering for flow 7 (from NI 0) to child HMC-4 (to NI 0) at timestep 26
3183951 | HMC-3 | finishes gather for flow 6 (from NI 0) to child HMC-7 (to NI 0) at timestep 26
3183952 | HMC-3 | start gathering for flow 10 (from NI 0) to child HMC-7 (to NI 0) at timestep 27
3185092 | HMC-10 | receives full gather for flow 12 from parent HMC-14
3185093 | HMC-10 | start gathering for flow 12 (from NI 0) to child HMC-6 (to NI 0) at timestep 27
3187150 | HMC-15 | finishes gather for flow 9 (from NI 0) to child HMC-14 (to NI 0) at timestep 27
3187475 | HMC-12 | receives full gather for flow 3 from parent HMC-13
3187476 | HMC-12 | start gathering for flow 3 (from NI 0) to child HMC-8 (to NI 0) at timestep 26
3187812 | HMC-11 | receives full gather for flow 5 from parent HMC-7
3187813 | HMC-11 | start gathering for flow 5 (from NI 0) to child HMC-15 (to NI 0) at timestep 27
3188020 | HMC-5 | finishes gather for flow 0 (from NI 0) to child HMC-9 (to NI 0) at timestep 26
3188021 | HMC-5 | start gathering for flow 4 (from NI 0) to child HMC-9 (to NI 0) at timestep 27
3188203 | HMC-14 | receives full gather for flow 9 from parent HMC-15
3190702 | HMC-4 | finishes gather for flow 11 (from NI 0) to child HMC-0 (to NI 0) at timestep 26
3192215 | HMC-0 | receives full gather for flow 11 from parent HMC-4
3192216 | HMC-0 | start gathering for flow 11 (from NI 0) to child HMC-1 (to NI 0) at timestep 27
3194428 | HMC-9 | receives full gather for flow 0 from parent HMC-5
3194429 | HMC-9 | start gathering for flow 0 (from NI 0) to child HMC-13 (to NI 0) at timestep 27
3195230 | HMC-7 | receives full gather for flow 6 from parent HMC-3
3195231 | HMC-7 | start gathering for flow 6 (from NI 0) to child HMC-11 (to NI 0) at timestep 27
3196771 | HMC-2 | finishes gather for flow 15 (from NI 0) to child HMC-3 (to NI 0) at timestep 28
3197825 | HMC-3 | receives full gather for flow 15 from parent HMC-2
3210238 | HMC-6 | finishes gather for flow 8 (from NI 0) to child HMC-5 (to NI 0) at timestep 27
3214326 | HMC-5 | receives full gather for flow 8 from parent HMC-6
3217452 | HMC-0 | finishes gather for flow 11 (from NI 0) to child HMC-1 (to NI 0) at timestep 27
3218506 | HMC-1 | receives full gather for flow 11 from parent HMC-0
3218507 | HMC-1 | start gathering for flow 11 (from NI 0) to child HMC-2 (to NI 0) at timestep 28
3226798 | HMC-11 | finishes gather for flow 5 (from NI 0) to child HMC-15 (to NI 0) at timestep 27
3229359 | HMC-8 | finishes gather for flow 7 (from NI 0) to child HMC-4 (to NI 0) at timestep 26
3231441 | HMC-15 | receives full gather for flow 5 from parent HMC-11
3231442 | HMC-15 | start gathering for flow 5 (from NI 0) to child HMC-14 (to NI 0) at timestep 28
3235776 | HMC-4 | receives full gather for flow 7 from parent HMC-8
3235777 | HMC-4 | start gathering for flow 7 (from NI 0) to child HMC-0 (to NI 0) at timestep 27
3239685 | HMC-10 | finishes gather for flow 12 (from NI 0) to child HMC-6 (to NI 0) at timestep 27
3242327 | HMC-9 | finishes gather for flow 0 (from NI 0) to child HMC-13 (to NI 0) at timestep 27
3243743 | HMC-1 | finishes gather for flow 11 (from NI 0) to child HMC-2 (to NI 0) at timestep 28
3244797 | HMC-2 | receives full gather for flow 11 from parent HMC-1
3244798 | HMC-2 | start gathering for flow 11 (from NI 0) to child HMC-3 (to NI 0) at timestep 29
3245488 | HMC-6 | receives full gather for flow 12 from parent HMC-10
3245489 | HMC-6 | start gathering for flow 12 (from NI 0) to child HMC-5 (to NI 0) at timestep 28
3248318 | HMC-13 | receives full gather for flow 0 from parent HMC-9
3248701 | HMC-12 | finishes gather for flow 3 (from NI 0) to child HMC-8 (to NI 0) at timestep 26
3249519 | HMC-7 | finishes gather for flow 6 (from NI 0) to child HMC-11 (to NI 0) at timestep 27
3250516 | HMC-14 | finishes gather for flow 13 (from NI 0) to child HMC-10 (to NI 0) at timestep 27
3250517 | HMC-14 | start gathering for flow 9 (from NI 0) to child HMC-10 (to NI 0) at timestep 28
3252259 | HMC-3 | finishes gather for flow 10 (from NI 0) to child HMC-7 (to NI 0) at timestep 27
3252260 | HMC-3 | start gathering for flow 14 (from NI 0) to child HMC-7 (to NI 0) at timestep 28
3254501 | HMC-8 | receives full gather for flow 3 from parent HMC-12
3254502 | HMC-8 | start gathering for flow 3 (from NI 0) to child HMC-4 (to NI 0) at timestep 27
3255492 | HMC-13 | finishes gather for flow 2 (from NI 0) to child HMC-12 (to NI 0) at timestep 26
3255493 | HMC-13 | start gathering for flow 1 (from NI 0) to child HMC-12 (to NI 0) at timestep 27
3255696 | HMC-11 | receives full gather for flow 6 from parent HMC-7
3255697 | HMC-11 | start gathering for flow 6 (from NI 0) to child HMC-15 (to NI 0) at timestep 28
3256408 | HMC-5 | finishes gather for flow 4 (from NI 0) to child HMC-9 (to NI 0) at timestep 27
3256409 | HMC-5 | start gathering for flow 8 (from NI 0) to child HMC-9 (to NI 0) at timestep 28
3256679 | HMC-15 | finishes gather for flow 5 (from NI 0) to child HMC-14 (to NI 0) at timestep 28
3257732 | HMC-14 | receives full gather for flow 5 from parent HMC-15
3258559 | HMC-10 | receives full gather for flow 13 from parent HMC-14
3258560 | HMC-10 | start gathering for flow 13 (from NI 0) to child HMC-6 (to NI 0) at timestep 28
3260921 | HMC-12 | receives full gather for flow 2 from parent HMC-13
3260922 | HMC-12 | start gathering for flow 2 (from NI 0) to child HMC-8 (to NI 0) at timestep 27
3261013 | HMC-4 | finishes gather for flow 7 (from NI 0) to child HMC-0 (to NI 0) at timestep 27
3262526 | HMC-0 | receives full gather for flow 7 from parent HMC-4
3262527 | HMC-0 | start gathering for flow 7 (from NI 0) to child HMC-1 (to NI 0) at timestep 28
3262955 | HMC-9 | receives full gather for flow 4 from parent HMC-5
3262956 | HMC-9 | start gathering for flow 4 (from NI 0) to child HMC-13 (to NI 0) at timestep 28
3263378 | HMC-7 | receives full gather for flow 10 from parent HMC-3
3263379 | HMC-7 | start gathering for flow 10 (from NI 0) to child HMC-11 (to NI 0) at timestep 28
3270034 | HMC-2 | finishes gather for flow 11 (from NI 0) to child HMC-3 (to NI 0) at timestep 29
3271088 | HMC-3 | receives full gather for flow 11 from parent HMC-2
3282826 | HMC-6 | finishes gather for flow 12 (from NI 0) to child HMC-5 (to NI 0) at timestep 28
3286913 | HMC-5 | receives full gather for flow 12 from parent HMC-6
3287763 | HMC-0 | finishes gather for flow 7 (from NI 0) to child HMC-1 (to NI 0) at timestep 28
3288817 | HMC-1 | receives full gather for flow 7 from parent HMC-0
3288818 | HMC-1 | start gathering for flow 7 (from NI 0) to child HMC-2 (to NI 0) at timestep 29
3293994 | HMC-11 | finishes gather for flow 6 (from NI 0) to child HMC-15 (to NI 0) at timestep 28
3298666 | HMC-15 | receives full gather for flow 6 from parent HMC-11
3298667 | HMC-15 | start gathering for flow 6 (from NI 0) to child HMC-14 (to NI 0) at timestep 29
3301568 | HMC-8 | finishes gather for flow 3 (from NI 0) to child HMC-4 (to NI 0) at timestep 27
3307268 | HMC-4 | receives full gather for flow 3 from parent HMC-8
3307269 | HMC-4 | start gathering for flow 3 (from NI 0) to child HMC-0 (to NI 0) at timestep 28
3310688 | HMC-9 | finishes gather for flow 4 (from NI 0) to child HMC-13 (to NI 0) at timestep 28
3312627 | HMC-10 | finishes gather for flow 13 (from NI 0) to child HMC-6 (to NI 0) at timestep 28
3314054 | HMC-1 | finishes gather for flow 7 (from NI 0) to child HMC-2 (to NI 0) at timestep 29
3315108 | HMC-2 | receives full gather for flow 7 from parent HMC-1
3315109 | HMC-2 | start gathering for flow 7 (from NI 0) to child HMC-3 (to NI 0) at timestep 30
3316713 | HMC-13 | receives full gather for flow 4 from parent HMC-9
3317017 | HMC-7 | finishes gather for flow 10 (from NI 0) to child HMC-11 (to NI 0) at timestep 28
3319054 | HMC-6 | receives full gather for flow 13 from parent HMC-10
3319055 | HMC-6 | start gathering for flow 13 (from NI 0) to child HMC-5 (to NI 0) at timestep 29
3319166 | HMC-3 | finishes gather for flow 14 (from NI 0) to child HMC-7 (to NI 0) at timestep 28
3319167 | HMC-3 | start gathering for flow 15 (from NI 0) to child HMC-7 (to NI 0) at timestep 29
3322458 | HMC-12 | finishes gather for flow 2 (from NI 0) to child HMC-8 (to NI 0) at timestep 27
3322889 | HMC-11 | receives full gather for flow 10 from parent HMC-7
3322890 | HMC-11 | start gathering for flow 10 (from NI 0) to child HMC-15 (to NI 0) at timestep 29
3323622 | HMC-14 | finishes gather for flow 9 (from NI 0) to child HMC-10 (to NI 0) at timestep 28
3323623 | HMC-14 | start gathering for flow 5 (from NI 0) to child HMC-10 (to NI 0) at timestep 29
3323860 | HMC-5 | finishes gather for flow 8 (from NI 0) to child HMC-9 (to NI 0) at timestep 28
3323861 | HMC-5 | start gathering for flow 12 (from NI 0) to child HMC-9 (to NI 0) at timestep 29
3323904 | HMC-15 | finishes gather for flow 6 (from NI 0) to child HMC-14 (to NI 0) at timestep 29
3324957 | HMC-14 | receives full gather for flow 6 from parent HMC-15
3328020 | HMC-13 | finishes gather for flow 1 (from NI 0) to child HMC-12 (to NI 0) at timestep 27
3328021 | HMC-13 | start gathering for flow 0 (from NI 0) to child HMC-12 (to NI 0) at timestep 28
3328534 | HMC-8 | receives full gather for flow 2 from parent HMC-12
3328535 | HMC-8 | start gathering for flow 2 (from NI 0) to child HMC-4 (to NI 0) at timestep 28
3330472 | HMC-7 | receives full gather for flow 14 from parent HMC-3
3330473 | HMC-7 | start gathering for flow 14 (from NI 0) to child HMC-11 (to NI 0) at timestep 29
3330673 | HMC-9 | receives full gather for flow 8 from parent HMC-5
3330674 | HMC-9 | start gathering for flow 8 (from NI 0) to child HMC-13 (to NI 0) at timestep 29
3331816 | HMC-10 | receives full gather for flow 9 from parent HMC-14
3331817 | HMC-10 | start gathering for flow 9 (from NI 0) to child HMC-6 (to NI 0) at timestep 29
3332505 | HMC-4 | finishes gather for flow 3 (from NI 0) to child HMC-0 (to NI 0) at timestep 28
3333403 | HMC-12 | receives full gather for flow 1 from parent HMC-13
3333404 | HMC-12 | start gathering for flow 1 (from NI 0) to child HMC-8 (to NI 0) at timestep 28
3334018 | HMC-0 | receives full gather for flow 3 from parent HMC-4
3334019 | HMC-0 | start gathering for flow 3 (from NI 0) to child HMC-1 (to NI 0) at timestep 29
3340345 | HMC-2 | finishes gather for flow 7 (from NI 0) to child HMC-3 (to NI 0) at timestep 30
3340345 | HMC-2 | finishes all-gather (after send-gather-message)
3341399 | HMC-3 | receives full gather for flow 7 from parent HMC-2
3355396 | HMC-6 | finishes gather for flow 13 (from NI 0) to child HMC-5 (to NI 0) at timestep 29
3359255 | HMC-0 | finishes gather for flow 3 (from NI 0) to child HMC-1 (to NI 0) at timestep 29
3359364 | HMC-5 | receives full gather for flow 13 from parent HMC-6
3360309 | HMC-1 | receives full gather for flow 3 from parent HMC-0
3360310 | HMC-1 | start gathering for flow 3 (from NI 0) to child HMC-2 (to NI 0) at timestep 30
3360632 | HMC-11 | finishes gather for flow 10 (from NI 0) to child HMC-15 (to NI 0) at timestep 29
3365191 | HMC-15 | receives full gather for flow 10 from parent HMC-11
3365192 | HMC-15 | start gathering for flow 10 (from NI 0) to child HMC-14 (to NI 0) at timestep 30
3375745 | HMC-8 | finishes gather for flow 2 (from NI 0) to child HMC-4 (to NI 0) at timestep 28
3378252 | HMC-9 | finishes gather for flow 8 (from NI 0) to child HMC-13 (to NI 0) at timestep 29
3381452 | HMC-4 | receives full gather for flow 2 from parent HMC-8
3381453 | HMC-4 | start gathering for flow 2 (from NI 0) to child HMC-0 (to NI 0) at timestep 29
3383307 | HMC-7 | finishes gather for flow 14 (from NI 0) to child HMC-11 (to NI 0) at timestep 29
3384201 | HMC-13 | receives full gather for flow 8 from parent HMC-9
3385546 | HMC-1 | finishes gather for flow 3 (from NI 0) to child HMC-2 (to NI 0) at timestep 30
3385546 | HMC-1 | finishes all-gather (after send-gather-message)
3386600 | HMC-2 | receives full gather for flow 3 from parent HMC-1
3386600 | HMC-2 | finishes all-gather (after recieving all-gather)
3386864 | HMC-3 | finishes gather for flow 15 (from NI 0) to child HMC-7 (to NI 0) at timestep 29
3386865 | HMC-3 | start gathering for flow 11 (from NI 0) to child HMC-7 (to NI 0) at timestep 30
3387160 | HMC-10 | finishes gather for flow 9 (from NI 0) to child HMC-6 (to NI 0) at timestep 29
3389343 | HMC-11 | receives full gather for flow 14 from parent HMC-7
3389344 | HMC-11 | start gathering for flow 14 (from NI 0) to child HMC-15 (to NI 0) at timestep 30
3390429 | HMC-15 | finishes gather for flow 10 (from NI 0) to child HMC-14 (to NI 0) at timestep 30
3390429 | HMC-15 | finishes all-gather (after send-gather-message)
3390866 | HMC-5 | finishes gather for flow 12 (from NI 0) to child HMC-9 (to NI 0) at timestep 29
3390867 | HMC-5 | start gathering for flow 13 (from NI 0) to child HMC-9 (to NI 0) at timestep 30
3391482 | HMC-14 | receives full gather for flow 10 from parent HMC-15
3393009 | HMC-6 | receives full gather for flow 9 from parent HMC-10
3393010 | HMC-6 | start gathering for flow 9 (from NI 0) to child HMC-5 (to NI 0) at timestep 30
3394453 | HMC-12 | finishes gather for flow 1 (from NI 0) to child HMC-8 (to NI 0) at timestep 28
3397735 | HMC-9 | receives full gather for flow 12 from parent HMC-5
3397736 | HMC-9 | start gathering for flow 12 (from NI 0) to child HMC-13 (to NI 0) at timestep 30
3397877 | HMC-7 | receives full gather for flow 15 from parent HMC-3
3397878 | HMC-7 | start gathering for flow 15 (from NI 0) to child HMC-11 (to NI 0) at timestep 30
3398062 | HMC-14 | finishes gather for flow 5 (from NI 0) to child HMC-10 (to NI 0) at timestep 29
3398063 | HMC-14 | start gathering for flow 6 (from NI 0) to child HMC-10 (to NI 0) at timestep 30
3400318 | HMC-8 | receives full gather for flow 1 from parent HMC-12
3400319 | HMC-8 | start gathering for flow 1 (from NI 0) to child HMC-4 (to NI 0) at timestep 29
3401184 | HMC-13 | finishes gather for flow 0 (from NI 0) to child HMC-12 (to NI 0) at timestep 28
3401185 | HMC-13 | start gathering for flow 4 (from NI 0) to child HMC-12 (to NI 0) at timestep 29
3406147 | HMC-10 | receives full gather for flow 5 from parent HMC-14
3406148 | HMC-10 | start gathering for flow 5 (from NI 0) to child HMC-6 (to NI 0) at timestep 30
3406382 | HMC-12 | receives full gather for flow 0 from parent HMC-13
3406383 | HMC-12 | start gathering for flow 0 (from NI 0) to child HMC-8 (to NI 0) at timestep 29
3406689 | HMC-4 | finishes gather for flow 2 (from NI 0) to child HMC-0 (to NI 0) at timestep 29
3408202 | HMC-0 | receives full gather for flow 2 from parent HMC-4
3408203 | HMC-0 | start gathering for flow 2 (from NI 0) to child HMC-1 (to NI 0) at timestep 30
3426736 | HMC-11 | finishes gather for flow 14 (from NI 0) to child HMC-15 (to NI 0) at timestep 30
3426736 | HMC-11 | finishes all-gather (after send-gather-message)
3431438 | HMC-15 | receives full gather for flow 14 from parent HMC-11
3431438 | HMC-15 | finishes all-gather (after recieving all-gather)
3431676 | HMC-6 | finishes gather for flow 9 (from NI 0) to child HMC-5 (to NI 0) at timestep 30
3431676 | HMC-6 | finishes all-gather (after send-gather-message)
3433439 | HMC-0 | finishes gather for flow 2 (from NI 0) to child HMC-1 (to NI 0) at timestep 30
3433439 | HMC-0 | finishes all-gather (after send-gather-message)
3434493 | HMC-1 | receives full gather for flow 2 from parent HMC-0
3434493 | HMC-1 | finishes all-gather (after recieving all-gather)
3435834 | HMC-5 | receives full gather for flow 9 from parent HMC-6
3445109 | HMC-9 | finishes gather for flow 12 (from NI 0) to child HMC-13 (to NI 0) at timestep 30
3445109 | HMC-9 | finishes all-gather (after send-gather-message)
3447861 | HMC-8 | finishes gather for flow 1 (from NI 0) to child HMC-4 (to NI 0) at timestep 29
3451049 | HMC-7 | finishes gather for flow 15 (from NI 0) to child HMC-11 (to NI 0) at timestep 30
3451049 | HMC-7 | finishes all-gather (after send-gather-message)
3451167 | HMC-13 | receives full gather for flow 12 from parent HMC-9
3452972 | HMC-3 | finishes gather for flow 11 (from NI 0) to child HMC-7 (to NI 0) at timestep 30
3452972 | HMC-3 | finishes all-gather (after send-gather-message)
3454121 | HMC-4 | receives full gather for flow 1 from parent HMC-8
3454122 | HMC-4 | start gathering for flow 1 (from NI 0) to child HMC-0 (to NI 0) at timestep 30
3457033 | HMC-5 | finishes gather for flow 13 (from NI 0) to child HMC-9 (to NI 0) at timestep 30
3457033 | HMC-5 | finishes all-gather (after send-gather-message)
3457179 | HMC-11 | receives full gather for flow 15 from parent HMC-7
3457179 | HMC-11 | finishes all-gather (after recieving all-gather)
3461156 | HMC-10 | finishes gather for flow 5 (from NI 0) to child HMC-6 (to NI 0) at timestep 30
3461156 | HMC-10 | finishes all-gather (after send-gather-message)
3463554 | HMC-9 | receives full gather for flow 13 from parent HMC-5
3463554 | HMC-9 | finishes all-gather (after recieving all-gather)
3463711 | HMC-7 | receives full gather for flow 11 from parent HMC-3
3463711 | HMC-7 | finishes all-gather (after recieving all-gather)
3467326 | HMC-6 | receives full gather for flow 5 from parent HMC-10
3467326 | HMC-6 | finishes all-gather (after recieving all-gather)
3467644 | HMC-12 | finishes gather for flow 0 (from NI 0) to child HMC-8 (to NI 0) at timestep 29
3472023 | HMC-14 | finishes gather for flow 6 (from NI 0) to child HMC-10 (to NI 0) at timestep 30
3472023 | HMC-14 | finishes all-gather (after send-gather-message)
3473355 | HMC-8 | receives full gather for flow 0 from parent HMC-12
3473356 | HMC-8 | start gathering for flow 0 (from NI 0) to child HMC-4 (to NI 0) at timestep 30
3474813 | HMC-13 | finishes gather for flow 4 (from NI 0) to child HMC-12 (to NI 0) at timestep 29
3474814 | HMC-13 | start gathering for flow 8 (from NI 0) to child HMC-12 (to NI 0) at timestep 30
3479358 | HMC-4 | finishes gather for flow 1 (from NI 0) to child HMC-0 (to NI 0) at timestep 30
3479358 | HMC-4 | finishes all-gather (after send-gather-message)
3479795 | HMC-10 | receives full gather for flow 6 from parent HMC-14
3479795 | HMC-10 | finishes all-gather (after recieving all-gather)
3479894 | HMC-12 | receives full gather for flow 4 from parent HMC-13
3479895 | HMC-12 | start gathering for flow 4 (from NI 0) to child HMC-8 (to NI 0) at timestep 30
3480871 | HMC-0 | receives full gather for flow 1 from parent HMC-4
3480871 | HMC-0 | finishes all-gather (after recieving all-gather)
3498592 | HMC-8 | finishes gather for flow 0 (from NI 0) to child HMC-4 (to NI 0) at timestep 30
3498592 | HMC-8 | finishes all-gather (after send-gather-message)
3500105 | HMC-4 | receives full gather for flow 0 from parent HMC-8
3500105 | HMC-4 | finishes all-gather (after recieving all-gather)
3502794 | HMC-13 | finishes gather for flow 8 (from NI 0) to child HMC-12 (to NI 0) at timestep 30
3502794 | HMC-13 | finishes all-gather (after send-gather-message)
3505131 | HMC-12 | finishes gather for flow 4 (from NI 0) to child HMC-8 (to NI 0) at timestep 30
3505131 | HMC-12 | finishes all-gather (after send-gather-message)
3505954 | HMC-12 | receives full gather for flow 8 from parent HMC-13
3505954 | HMC-12 | finishes all-gather (after recieving all-gather)
3506644 | HMC-8 | receives full gather for flow 4 from parent HMC-12
3506644 | HMC-8 | finishes all-gather (after recieving all-gather)

======== Simulation Summary ========
Training epoch runtime: 3506793 cycles
 - computation: 1297950 cycles (37.01%)
 - allreduce: 2208843 cycles (62.99%)
     - overlapped computation: 46320 cycles (1.32%)
     - pure communication: 2162523 cycles (61.67%)
Total number of messages: 737760

