====================================================
******************* SCALE SIM **********************
====================================================
Array Size:    32 x 32
SRAM IFMAP:    524288
SRAM Filter:   524288
SRAM OFMAP:    262144
CSV file path: /home/farabi/study/research/multitree-sim/src/SCALE-Sim/topologies/mlperf/FasterRCNN.csv
Dataflow:      os
====================================================


Model loading ...
Model loading finished

NN model size: 13258944 parameters

Start a training epoch ...

Feed-Forward ...

Commencing run for Conv1
Average utilization : 98.97567067309872 %
Cycles for compute  : 110281 cycles

Commencing run for CB2a_1
Average utilization : 99.66873757455268 %
Cycles for compute  : 12576 cycles

Commencing run for CB2a_2
Average utilization : 99.01491497370655 %
Cycles for compute  : 106016 cycles

Commencing run for CB2a_3
Average utilization : 99.91703099169439 %
Cycles for compute  : 50207 cycles

Commencing run for CB2s
Average utilization : 99.91703099169439 %
Cycles for compute  : 50207 cycles

Commencing run for IB2b_1
Average utilization : 99.91703099169439 %
Cycles for compute  : 50208 cycles

Commencing run for IB2b_2
Average utilization : 99.01491497370655 %
Cycles for compute  : 106016 cycles

Commencing run for IB2b_3
Average utilization : 99.91703099169439 %
Cycles for compute  : 50207 cycles

Commencing run for IB2c_1
Average utilization : 99.91703099169439 %
Cycles for compute  : 50208 cycles

Commencing run for IB2c_2
Average utilization : 99.01491497370655 %
Cycles for compute  : 106016 cycles

Commencing run for IB2c_3
Average utilization : 99.91703099169439 %
Cycles for compute  : 50207 cycles

Commencing run for CB3a_1
Average utilization : 94.10118880135059 %
Cycles for compute  : 26655 cycles

Commencing run for CB3a_2
Average utilization : 95.98810940997663 %
Cycles for compute  : 101407 cycles

Commencing run for CB3a_3
Average utilization : 97.92900355741641 %
Cycles for compute  : 51231 cycles

Commencing run for CB3s
Average utilization : 94.19834584189924 %
Cycles for compute  : 106527 cycles

Commencing run for IB3b_1
Average utilization : 97.92900355741641 %
Cycles for compute  : 51231 cycles

Commencing run for IB3b_2
Average utilization : 95.98810940997663 %
Cycles for compute  : 101407 cycles

Commencing run for IB3b_3
Average utilization : 97.92900355741641 %
Cycles for compute  : 51231 cycles

Commencing run for IB3c_1
Average utilization : 97.92900355741641 %
Cycles for compute  : 51231 cycles

Commencing run for IB3c_2
Average utilization : 95.98810940997663 %
Cycles for compute  : 101407 cycles

Commencing run for IB3c_3
Average utilization : 97.92900355741641 %
Cycles for compute  : 51231 cycles

Commencing run for IB3d_1
Average utilization : 97.92900355741641 %
Cycles for compute  : 51231 cycles

Commencing run for IB3d_2
Average utilization : 95.98810940997663 %
Cycles for compute  : 101407 cycles

Commencing run for IB3d_3
Average utilization : 97.92900355741641 %
Cycles for compute  : 51231 cycles

Commencing run for CB4a_1
Average utilization : 87.38690070506567 %
Cycles for compute  : 28703 cycles

Commencing run for CB4a_2
Average utilization : 89.96323698896856 %
Cycles for compute  : 92191 cycles

Commencing run for CB4a_3
Average utilization : 87.44341979847493 %
Cycles for compute  : 57375 cycles

Commencing run for CB4s
Average utilization : 87.47170225453064 %
Cycles for compute  : 114719 cycles

Commencing run for IB4b_1
Average utilization : 87.44341979847493 %
Cycles for compute  : 57375 cycles

Commencing run for IB4b_2
Average utilization : 89.96323698896856 %
Cycles for compute  : 92191 cycles

Commencing run for IB4b_3
Average utilization : 87.44341979847493 %
Cycles for compute  : 57375 cycles

Commencing run for IB4c_1
Average utilization : 87.44341979847493 %
Cycles for compute  : 57375 cycles

Commencing run for IB4c_2
Average utilization : 89.96323698896856 %
Cycles for compute  : 92191 cycles

Commencing run for IB4c_3
Average utilization : 87.44341979847493 %
Cycles for compute  : 57375 cycles

Commencing run for IB4d_1
Average utilization : 87.44341979847493 %
Cycles for compute  : 57375 cycles

Commencing run for IB4d_2
Average utilization : 89.96323698896856 %
Cycles for compute  : 92191 cycles

Commencing run for IB4d_3
Average utilization : 87.44341979847493 %
Cycles for compute  : 57375 cycles

Commencing run for IB4e_1
Average utilization : 87.44341979847493 %
Cycles for compute  : 57375 cycles

Commencing run for IB4e_2
Average utilization : 89.96323698896856 %
Cycles for compute  : 92191 cycles

Commencing run for IB4e_3
Average utilization : 87.44341979847493 %
Cycles for compute  : 57375 cycles

Commencing run for IB4f_1
Average utilization : 87.44341979847493 %
Cycles for compute  : 57375 cycles

Commencing run for IB4f_2
Average utilization : 89.96323698896856 %
Cycles for compute  : 92191 cycles

Commencing run for IB4f_3
Average utilization : 87.44341979847493 %
Cycles for compute  : 57375 cycles

Commencing run for RPN_Conv1
Average utilization : 89.99540327114339 %
Cycles for compute  : 737311 cycles

Commencing run for RPN_Conv_bbox
Average utilization : 49.197886888160646 %
Cycles for compute  : 7172 cycles

Commencing run for RPN_Conv3_cls
Average utilization : 48.95984296896695 %
Cycles for compute  : 3605 cycles

Backward Propagation ...

Commencing back-propagation run for RPN_Conv3_cls
 - compute input-gradient:
 -- input-gradient: read cycles: 2047, write cycles: 3168
 - compute filter-gradient:
 -- filter-gradient: read cycles: 3167, write cycles: 3199
 - input-gradient-cycles: 2047, uitl: 85.89241687530532 %
 - filter-gradent-cycles: 3199, uitl: 55.5153117106094 %
Average utilization : 67.44126765079592 %
Cycles for compute  : 6367 cycles


Commencing back-propagation run for RPN_Conv_bbox
 - compute input-gradient:
 -- input-gradient: read cycles: 4063, write cycles: 3168
 - compute filter-gradient:
 -- filter-gradient: read cycles: 6303, write cycles: 6304
 - input-gradient-cycles: 4063, uitl: 86.70101179854787 %
 - filter-gradent-cycles: 6304, uitl: 55.888657930747264 %
Average utilization : 67.96569765338607 %
Cycles for compute  : 10367 cycles


Commencing back-propagation run for RPN_Conv1
 - compute input-gradient:
 -- input-gradient: read cycles: 1032223, write cycles: 6374
 - compute filter-gradient:
 -- filter-gradient: read cycles: 663583, write cycles: 663150
 - input-gradient-cycles: 1032223, uitl: 87.4968550506407 %
 - filter-gradent-cycles: 663583, uitl: 99.99372252604421 %
Average utilization : 92.38698329050463 %
Cycles for compute  : 1695806 cycles


Commencing back-propagation run for IB4f_3
 - compute input-gradient:
 -- input-gradient: read cycles: 57375, write cycles: 1600
 - compute filter-gradient:
 -- filter-gradient: read cycles: 50207, write cycles: 49278
 - input-gradient-cycles: 57375, uitl: 87.44341979847493 %
 - filter-gradent-cycles: 50207, uitl: 99.91703099169439 %
Average utilization : 93.26467797528862 %
Cycles for compute  : 107582 cycles


Commencing back-propagation run for IB4f_2
 - compute input-gradient:
 -- input-gradient: read cycles: 129055, write cycles: 1622
 - compute filter-gradient:
 -- filter-gradient: read cycles: 82975, write cycles: 82790
 - input-gradient-cycles: 129055, uitl: 87.4748456932122 %
 - filter-gradent-cycles: 82975, uitl: 99.94979662548961 %
Average utilization : 92.35674473394096 %
Cycles for compute  : 212030 cycles


Commencing back-propagation run for IB4f_1
 - compute input-gradient:
 -- input-gradient: read cycles: 57375, write cycles: 6304
 - compute filter-gradient:
 -- filter-gradient: read cycles: 50207, write cycles: 50022
 - input-gradient-cycles: 57375, uitl: 87.44341979847493 %
 - filter-gradent-cycles: 50207, uitl: 99.91703099169439 %
Average utilization : 93.26467797528862 %
Cycles for compute  : 107582 cycles


Commencing back-propagation run for IB4e_3
 - compute input-gradient:
 -- input-gradient: read cycles: 57375, write cycles: 1600
 - compute filter-gradient:
 -- filter-gradient: read cycles: 50207, write cycles: 49278
 - input-gradient-cycles: 57375, uitl: 87.44341979847493 %
 - filter-gradent-cycles: 50207, uitl: 99.91703099169439 %
Average utilization : 93.26467797528862 %
Cycles for compute  : 107582 cycles


Commencing back-propagation run for IB4e_2
 - compute input-gradient:
 -- input-gradient: read cycles: 129055, write cycles: 1622
 - compute filter-gradient:
 -- filter-gradient: read cycles: 82975, write cycles: 82790
 - input-gradient-cycles: 129055, uitl: 87.4748456932122 %
 - filter-gradent-cycles: 82975, uitl: 99.94979662548961 %
Average utilization : 92.35674473394096 %
Cycles for compute  : 212030 cycles


Commencing back-propagation run for IB4e_1
 - compute input-gradient:
 -- input-gradient: read cycles: 57375, write cycles: 6304
 - compute filter-gradient:
 -- filter-gradient: read cycles: 50207, write cycles: 50022
 - input-gradient-cycles: 57375, uitl: 87.44341979847493 %
 - filter-gradent-cycles: 50207, uitl: 99.91703099169439 %
Average utilization : 93.26467797528862 %
Cycles for compute  : 107582 cycles


Commencing back-propagation run for IB4d_3
 - compute input-gradient:
 -- input-gradient: read cycles: 57375, write cycles: 1600
 - compute filter-gradient:
 -- filter-gradient: read cycles: 50207, write cycles: 49278
 - input-gradient-cycles: 57375, uitl: 87.44341979847493 %
 - filter-gradent-cycles: 50207, uitl: 99.91703099169439 %
Average utilization : 93.26467797528862 %
Cycles for compute  : 107582 cycles


Commencing back-propagation run for IB4d_2
 - compute input-gradient:
 -- input-gradient: read cycles: 129055, write cycles: 1622
 - compute filter-gradient:
 -- filter-gradient: read cycles: 82975, write cycles: 82790
 - input-gradient-cycles: 129055, uitl: 87.4748456932122 %
 - filter-gradent-cycles: 82975, uitl: 99.94979662548961 %
Average utilization : 92.35674473394096 %
Cycles for compute  : 212030 cycles


Commencing back-propagation run for IB4d_1
 - compute input-gradient:
 -- input-gradient: read cycles: 57375, write cycles: 6304
 - compute filter-gradient:
 -- filter-gradient: read cycles: 50207, write cycles: 50022
 - input-gradient-cycles: 57375, uitl: 87.44341979847493 %
 - filter-gradent-cycles: 50207, uitl: 99.91703099169439 %
Average utilization : 93.26467797528862 %
Cycles for compute  : 107582 cycles


Commencing back-propagation run for IB4c_3
 - compute input-gradient:
 -- input-gradient: read cycles: 57375, write cycles: 1600
 - compute filter-gradient:
 -- filter-gradient: read cycles: 50207, write cycles: 49278
 - input-gradient-cycles: 57375, uitl: 87.44341979847493 %
 - filter-gradent-cycles: 50207, uitl: 99.91703099169439 %
Average utilization : 93.26467797528862 %
Cycles for compute  : 107582 cycles


Commencing back-propagation run for IB4c_2
 - compute input-gradient:
 -- input-gradient: read cycles: 129055, write cycles: 1622
 - compute filter-gradient:
 -- filter-gradient: read cycles: 82975, write cycles: 82790
 - input-gradient-cycles: 129055, uitl: 87.4748456932122 %
 - filter-gradent-cycles: 82975, uitl: 99.94979662548961 %
Average utilization : 92.35674473394096 %
Cycles for compute  : 212030 cycles


Commencing back-propagation run for IB4c_1
 - compute input-gradient:
 -- input-gradient: read cycles: 57375, write cycles: 6304
 - compute filter-gradient:
 -- filter-gradient: read cycles: 50207, write cycles: 50022
 - input-gradient-cycles: 57375, uitl: 87.44341979847493 %
 - filter-gradent-cycles: 50207, uitl: 99.91703099169439 %
Average utilization : 93.26467797528862 %
Cycles for compute  : 107582 cycles


Commencing back-propagation run for IB4b_3
 - compute input-gradient:
 -- input-gradient: read cycles: 57375, write cycles: 1600
 - compute filter-gradient:
 -- filter-gradient: read cycles: 50207, write cycles: 49278
 - input-gradient-cycles: 57375, uitl: 87.44341979847493 %
 - filter-gradent-cycles: 50207, uitl: 99.91703099169439 %
Average utilization : 93.26467797528862 %
Cycles for compute  : 107582 cycles


Commencing back-propagation run for IB4b_2
 - compute input-gradient:
 -- input-gradient: read cycles: 129055, write cycles: 1622
 - compute filter-gradient:
 -- filter-gradient: read cycles: 82975, write cycles: 82790
 - input-gradient-cycles: 129055, uitl: 87.4748456932122 %
 - filter-gradent-cycles: 82975, uitl: 99.94979662548961 %
Average utilization : 92.35674473394096 %
Cycles for compute  : 212030 cycles


Commencing back-propagation run for IB4b_1
 - compute input-gradient:
 -- input-gradient: read cycles: 57375, write cycles: 6304
 - compute filter-gradient:
 -- filter-gradient: read cycles: 50207, write cycles: 50022
 - input-gradient-cycles: 57375, uitl: 87.44341979847493 %
 - filter-gradent-cycles: 50207, uitl: 99.91703099169439 %
Average utilization : 93.26467797528862 %
Cycles for compute  : 107582 cycles


Commencing back-propagation run for CB4s
 - compute input-gradient:
 -- input-gradient: read cycles: 409631, write cycles: 12576
 - compute filter-gradient:
 -- filter-gradient: read cycles: 100383, write cycles: 99454
 - input-gradient-cycles: 409631, uitl: 97.99112074342517 %
 - filter-gradent-cycles: 100383, uitl: 99.95850268471753 %
Average utilization : 98.378348743858 %
Cycles for compute  : 510014 cycles


Commencing back-propagation run for CB4a_3
 - compute input-gradient:
 -- input-gradient: read cycles: 57375, write cycles: 1600
 - compute filter-gradient:
 -- filter-gradient: read cycles: 50207, write cycles: 49278
 - input-gradient-cycles: 57375, uitl: 87.44341979847493 %
 - filter-gradent-cycles: 50207, uitl: 99.91703099169439 %
Average utilization : 93.26467797528862 %
Cycles for compute  : 107582 cycles


Commencing back-propagation run for CB4a_2
 - compute input-gradient:
 -- input-gradient: read cycles: 129055, write cycles: 1622
 - compute filter-gradient:
 -- filter-gradient: read cycles: 82975, write cycles: 82790
 - input-gradient-cycles: 129055, uitl: 87.4748456932122 %
 - filter-gradent-cycles: 82975, uitl: 99.94979662548961 %
Average utilization : 92.35674473394096 %
Cycles for compute  : 212030 cycles


Commencing back-propagation run for CB4a_1
 - compute input-gradient:
 -- input-gradient: read cycles: 102431, write cycles: 12576
 - compute filter-gradient:
 -- filter-gradient: read cycles: 25119, write cycles: 24934
 - input-gradient-cycles: 102431, uitl: 97.96449103542872 %
 - filter-gradent-cycles: 25119, uitl: 99.8341643775628 %
Average utilization : 98.33269428655429 %
Cycles for compute  : 127550 cycles


Commencing back-propagation run for IB3d_3
 - compute input-gradient:
 -- input-gradient: read cycles: 51231, write cycles: 3168
 - compute filter-gradient:
 -- filter-gradient: read cycles: 50207, write cycles: 49774
 - input-gradient-cycles: 51231, uitl: 97.92900355741641 %
 - filter-gradent-cycles: 50207, uitl: 99.91703099169439 %
Average utilization : 98.912982868846 %
Cycles for compute  : 101438 cycles


Commencing back-propagation run for IB3d_2
 - compute input-gradient:
 -- input-gradient: read cycles: 115231, write cycles: 3176
 - compute filter-gradient:
 -- filter-gradient: read cycles: 97375, write cycles: 97314
 - input-gradient-cycles: 115231, uitl: 97.96843541451518 %
 - filter-gradent-cycles: 97375, uitl: 99.95722079589217 %
Average utilization : 98.8793127016641 %
Cycles for compute  : 212606 cycles


Commencing back-propagation run for IB3d_1
 - compute input-gradient:
 -- input-gradient: read cycles: 51231, write cycles: 12576
 - compute filter-gradient:
 -- filter-gradient: read cycles: 50207, write cycles: 50146
 - input-gradient-cycles: 51231, uitl: 97.92900355741641 %
 - filter-gradent-cycles: 50207, uitl: 99.91703099169439 %
Average utilization : 98.912982868846 %
Cycles for compute  : 101438 cycles


Commencing back-propagation run for IB3c_3
 - compute input-gradient:
 -- input-gradient: read cycles: 51231, write cycles: 3168
 - compute filter-gradient:
 -- filter-gradient: read cycles: 50207, write cycles: 49774
 - input-gradient-cycles: 51231, uitl: 97.92900355741641 %
 - filter-gradent-cycles: 50207, uitl: 99.91703099169439 %
Average utilization : 98.912982868846 %
Cycles for compute  : 101438 cycles


Commencing back-propagation run for IB3c_2
 - compute input-gradient:
 -- input-gradient: read cycles: 115231, write cycles: 3176
 - compute filter-gradient:
 -- filter-gradient: read cycles: 97375, write cycles: 97314
 - input-gradient-cycles: 115231, uitl: 97.96843541451518 %
 - filter-gradent-cycles: 97375, uitl: 99.95722079589217 %
Average utilization : 98.8793127016641 %
Cycles for compute  : 212606 cycles


Commencing back-propagation run for IB3c_1
 - compute input-gradient:
 -- input-gradient: read cycles: 51231, write cycles: 12576
 - compute filter-gradient:
 -- filter-gradient: read cycles: 50207, write cycles: 50146
 - input-gradient-cycles: 51231, uitl: 97.92900355741641 %
 - filter-gradent-cycles: 50207, uitl: 99.91703099169439 %
Average utilization : 98.912982868846 %
Cycles for compute  : 101438 cycles


Commencing back-propagation run for IB3b_3
 - compute input-gradient:
 -- input-gradient: read cycles: 51231, write cycles: 3168
 - compute filter-gradient:
 -- filter-gradient: read cycles: 50207, write cycles: 49774
 - input-gradient-cycles: 51231, uitl: 97.92900355741641 %
 - filter-gradent-cycles: 50207, uitl: 99.91703099169439 %
Average utilization : 98.912982868846 %
Cycles for compute  : 101438 cycles


Commencing back-propagation run for IB3b_2
 - compute input-gradient:
 -- input-gradient: read cycles: 115231, write cycles: 3176
 - compute filter-gradient:
 -- filter-gradient: read cycles: 97375, write cycles: 97314
 - input-gradient-cycles: 115231, uitl: 97.96843541451518 %
 - filter-gradent-cycles: 97375, uitl: 99.95722079589217 %
Average utilization : 98.8793127016641 %
Cycles for compute  : 212606 cycles


Commencing back-propagation run for IB3b_1
 - compute input-gradient:
 -- input-gradient: read cycles: 51231, write cycles: 12576
 - compute filter-gradient:
 -- filter-gradient: read cycles: 50207, write cycles: 50146
 - input-gradient-cycles: 51231, uitl: 97.92900355741641 %
 - filter-gradent-cycles: 50207, uitl: 99.91703099169439 %
Average utilization : 98.912982868846 %
Cycles for compute  : 101438 cycles


Commencing back-propagation run for CB3s
 - compute input-gradient:
 -- input-gradient: read cycles: 401439, write cycles: 25120
 - compute filter-gradient:
 -- filter-gradient: read cycles: 100383, write cycles: 99950
 - input-gradient-cycles: 401439, uitl: 99.98962326779412 %
 - filter-gradent-cycles: 100383, uitl: 99.95850268471753 %
Average utilization : 99.9833979976964 %
Cycles for compute  : 501822 cycles


Commencing back-propagation run for CB3a_3
 - compute input-gradient:
 -- input-gradient: read cycles: 51231, write cycles: 3168
 - compute filter-gradient:
 -- filter-gradient: read cycles: 50207, write cycles: 49774
 - input-gradient-cycles: 51231, uitl: 97.92900355741641 %
 - filter-gradent-cycles: 50207, uitl: 99.91703099169439 %
Average utilization : 98.912982868846 %
Cycles for compute  : 101438 cycles


Commencing back-propagation run for CB3a_2
 - compute input-gradient:
 -- input-gradient: read cycles: 115231, write cycles: 3176
 - compute filter-gradient:
 -- filter-gradient: read cycles: 97375, write cycles: 97314
 - input-gradient-cycles: 115231, uitl: 97.96843541451518 %
 - filter-gradent-cycles: 97375, uitl: 99.95722079589217 %
Average utilization : 98.8793127016641 %
Cycles for compute  : 212606 cycles


Commencing back-propagation run for CB3a_1
 - compute input-gradient:
 -- input-gradient: read cycles: 100383, write cycles: 25120
 - compute filter-gradient:
 -- filter-gradient: read cycles: 25119, write cycles: 25058
 - input-gradient-cycles: 100383, uitl: 99.95850268471753 %
 - filter-gradent-cycles: 25119, uitl: 99.8341643775628 %
Average utilization : 99.93361659575146 %
Cycles for compute  : 125502 cycles


Commencing back-propagation run for IB2c_3
 - compute input-gradient:
 -- input-gradient: read cycles: 50207, write cycles: 6304
 - compute filter-gradient:
 -- filter-gradient: read cycles: 50207, write cycles: 50022
 - input-gradient-cycles: 50207, uitl: 99.91703099169439 %
 - filter-gradent-cycles: 50207, uitl: 99.91703099169439 %
Average utilization : 99.91703099169439 %
Cycles for compute  : 100414 cycles


Commencing back-propagation run for IB2c_2
 - compute input-gradient:
 -- input-gradient: read cycles: 112927, write cycles: 6312
 - compute filter-gradient:
 -- filter-gradient: read cycles: 105007, write cycles: 105008
 - input-gradient-cycles: 112927, uitl: 99.96311223179576 %
 - filter-gradent-cycles: 105008, uitl: 99.96033002561734 %
Average utilization : 99.96177168317013 %
Cycles for compute  : 217935 cycles


Commencing back-propagation run for IB2c_1
 - compute input-gradient:
 -- input-gradient: read cycles: 50207, write cycles: 25120
 - compute filter-gradient:
 -- filter-gradient: read cycles: 50207, write cycles: 50208
 - input-gradient-cycles: 50207, uitl: 99.91703099169439 %
 - filter-gradent-cycles: 50208, uitl: 99.91703099169439 %
Average utilization : 99.91703099169439 %
Cycles for compute  : 100415 cycles


Commencing back-propagation run for IB2b_3
 - compute input-gradient:
 -- input-gradient: read cycles: 50207, write cycles: 6304
 - compute filter-gradient:
 -- filter-gradient: read cycles: 50207, write cycles: 50022
 - input-gradient-cycles: 50207, uitl: 99.91703099169439 %
 - filter-gradent-cycles: 50207, uitl: 99.91703099169439 %
Average utilization : 99.91703099169439 %
Cycles for compute  : 100414 cycles


Commencing back-propagation run for IB2b_2
 - compute input-gradient:
 -- input-gradient: read cycles: 112927, write cycles: 6312
 - compute filter-gradient:
 -- filter-gradient: read cycles: 105007, write cycles: 105008
 - input-gradient-cycles: 112927, uitl: 99.96311223179576 %
 - filter-gradent-cycles: 105008, uitl: 99.96033002561734 %
Average utilization : 99.96177168317013 %
Cycles for compute  : 217935 cycles


Commencing back-propagation run for IB2b_1
 - compute input-gradient:
 -- input-gradient: read cycles: 50207, write cycles: 25120
 - compute filter-gradient:
 -- filter-gradient: read cycles: 50207, write cycles: 50208
 - input-gradient-cycles: 50207, uitl: 99.91703099169439 %
 - filter-gradent-cycles: 50208, uitl: 99.91703099169439 %
Average utilization : 99.91703099169439 %
Cycles for compute  : 100415 cycles


Commencing back-propagation run for CB2s
 - compute input-gradient:
 -- input-gradient: read cycles: 50207, write cycles: 6304
 - compute filter-gradient:
 -- filter-gradient: read cycles: 50207, write cycles: 50022
 - input-gradient-cycles: 50207, uitl: 99.91703099169439 %
 - filter-gradent-cycles: 50207, uitl: 99.91703099169439 %
Average utilization : 99.91703099169439 %
Cycles for compute  : 100414 cycles


Commencing back-propagation run for CB2a_3
 - compute input-gradient:
 -- input-gradient: read cycles: 50207, write cycles: 6304
 - compute filter-gradient:
 -- filter-gradient: read cycles: 50207, write cycles: 50022
 - input-gradient-cycles: 50207, uitl: 99.91703099169439 %
 - filter-gradent-cycles: 50207, uitl: 99.91703099169439 %
Average utilization : 99.91703099169439 %
Cycles for compute  : 100414 cycles


Commencing back-propagation run for CB2a_2
 - compute input-gradient:
 -- input-gradient: read cycles: 112927, write cycles: 6312
 - compute filter-gradient:
 -- filter-gradient: read cycles: 105007, write cycles: 105008
 - input-gradient-cycles: 112927, uitl: 99.96311223179576 %
 - filter-gradent-cycles: 105008, uitl: 99.96033002561734 %
Average utilization : 99.96177168317013 %
Cycles for compute  : 217935 cycles


Commencing back-propagation run for CB2a_1
 - compute input-gradient:
 -- input-gradient: read cycles: 12575, write cycles: 6304
 - compute filter-gradient:
 -- filter-gradient: read cycles: 12575, write cycles: 12576
 - input-gradient-cycles: 12575, uitl: 99.66873757455268 %
 - filter-gradent-cycles: 12576, uitl: 99.66873757455268 %
Average utilization : 99.66873757455268 %
Cycles for compute  : 25151 cycles


Commencing back-propagation run for Conv1
 - compute input-gradient:
 -- input-gradient: read cycles: 4917279, write cycles: 76895
 - compute filter-gradient:
 -- filter-gradient: read cycles: 118828, write cycles: 118842
 - input-gradient-cycles: 4917279, uitl: 9.374913093450667 %
 - filter-gradent-cycles: 118842, uitl: 91.85566204408893 %
Average utilization : 11.321063649089465 %
Cycles for compute  : 5036121 cycles

0 | HMC-14 | starts training, computation state: training, communication state: idle
0 | HMC-15 | starts training, computation state: training, communication state: idle
0 | HMC-9 | starts training, computation state: training, communication state: idle
0 | HMC-12 | starts training, computation state: training, communication state: idle
0 | HMC-8 | starts training, computation state: training, communication state: idle
0 | HMC-1 | starts training, computation state: training, communication state: idle
0 | HMC-13 | starts training, computation state: training, communication state: idle
0 | HMC-7 | starts training, computation state: training, communication state: idle
0 | HMC-11 | starts training, computation state: training, communication state: idle
0 | HMC-3 | starts training, computation state: training, communication state: idle
0 | HMC-0 | starts training, computation state: training, communication state: idle
0 | HMC-10 | starts training, computation state: training, communication state: idle
0 | HMC-5 | starts training, computation state: training, communication state: idle
0 | HMC-6 | starts training, computation state: training, communication state: idle
0 | HMC-2 | starts training, computation state: training, communication state: idle
0 | HMC-4 | starts training, computation state: training, communication state: idle
17026420 | HMC-14 finishes training, computation sate: idle, communication state: idle
17026420 | HMC-5 finishes training, computation sate: idle, communication state: idle
17026420 | HMC-9 finishes training, computation sate: idle, communication state: idle
17026420 | HMC-6 finishes training, computation sate: idle, communication state: idle
17026420 | HMC-8 finishes training, computation sate: idle, communication state: idle
17026420 | HMC-1 finishes training, computation sate: idle, communication state: idle
17026420 | HMC-13 finishes training, computation sate: idle, communication state: idle
17026420 | HMC-7 finishes training, computation sate: idle, communication state: idle
17026420 | HMC-11 finishes training, computation sate: idle, communication state: idle
17026420 | HMC-4 finishes training, computation sate: idle, communication state: idle
17026420 | HMC-0 finishes training, computation sate: idle, communication state: idle
17026420 | HMC-10 finishes training, computation sate: idle, communication state: idle
17026420 | HMC-15 finishes training, computation sate: idle, communication state: idle
17026420 | HMC-12 finishes training, computation sate: idle, communication state: idle
17026420 | HMC-2 finishes training, computation sate: idle, communication state: idle
17026420 | HMC-3 finishes training, computation sate: idle, communication state: idle
17026421 | HMC-14 | starts aggregation, computation state: aggregating, communication state: idle
17026421 | HMC-15 | starts aggregation, computation state: aggregating, communication state: idle
17026421 | HMC-9 | starts aggregation, computation state: aggregating, communication state: idle
17026421 | HMC-12 | starts aggregation, computation state: aggregating, communication state: idle
17026421 | HMC-8 | starts aggregation, computation state: aggregating, communication state: idle
17026421 | HMC-1 | starts aggregation, computation state: aggregating, communication state: idle
17026421 | HMC-13 | starts aggregation, computation state: aggregating, communication state: idle
17026421 | HMC-7 | starts aggregation, computation state: aggregating, communication state: idle
17026421 | HMC-11 | starts aggregation, computation state: aggregating, communication state: idle
17026421 | HMC-3 | starts aggregation, computation state: aggregating, communication state: idle
17026421 | HMC-0 | starts aggregation, computation state: aggregating, communication state: idle
17026421 | HMC-10 | starts aggregation, computation state: aggregating, communication state: idle
17026421 | HMC-5 | starts aggregation, computation state: aggregating, communication state: idle
17026421 | HMC-6 | starts aggregation, computation state: aggregating, communication state: idle
17026421 | HMC-2 | starts aggregation, computation state: aggregating, communication state: idle
17026421 | HMC-4 | starts aggregation, computation state: aggregating, communication state: idle
17440773 | HMC-14 | finishes aggregation , computation state: idle, communication state: reduce-scatter
17440773 | HMC-5 | finishes aggregation , computation state: idle, communication state: reduce-scatter
17440773 | HMC-9 | finishes aggregation , computation state: idle, communication state: reduce-scatter
17440773 | HMC-6 | finishes aggregation , computation state: idle, communication state: reduce-scatter
17440773 | HMC-8 | finishes aggregation , computation state: idle, communication state: reduce-scatter
17440773 | HMC-1 | finishes aggregation , computation state: idle, communication state: reduce-scatter
17440773 | HMC-13 | finishes aggregation , computation state: idle, communication state: reduce-scatter
17440773 | HMC-7 | finishes aggregation , computation state: idle, communication state: reduce-scatter
17440773 | HMC-11 | finishes aggregation , computation state: idle, communication state: reduce-scatter
17440773 | HMC-4 | finishes aggregation , computation state: idle, communication state: reduce-scatter
17440773 | HMC-0 | finishes aggregation , computation state: idle, communication state: reduce-scatter
17440773 | HMC-10 | finishes aggregation , computation state: idle, communication state: reduce-scatter
17440773 | HMC-15 | finishes aggregation , computation state: idle, communication state: reduce-scatter
17440773 | HMC-12 | finishes aggregation , computation state: idle, communication state: reduce-scatter
17440773 | HMC-2 | finishes aggregation , computation state: idle, communication state: reduce-scatter
17440773 | HMC-3 | finishes aggregation , computation state: idle, communication state: reduce-scatter
17440774 | HMC-14 | start reducing for flow 10 (from NI 0) to parent HMC-15 (to NI 0) at timestep 0
17440774 | HMC-15 | start reducing for flow 14 (from NI 0) to parent HMC-11 (to NI 0) at timestep 0
17440774 | HMC-9 | start reducing for flow 13 (from NI 0) to parent HMC-5 (to NI 0) at timestep 0
17440774 | HMC-12 | start reducing for flow 8 (from NI 0) to parent HMC-13 (to NI 0) at timestep 0
17440774 | HMC-8 | start reducing for flow 4 (from NI 0) to parent HMC-12 (to NI 0) at timestep 0
17440774 | HMC-1 | start reducing for flow 2 (from NI 0) to parent HMC-0 (to NI 0) at timestep 0
17440774 | HMC-13 | start reducing for flow 12 (from NI 0) to parent HMC-9 (to NI 0) at timestep 0
17440774 | HMC-7 | start reducing for flow 11 (from NI 0) to parent HMC-3 (to NI 0) at timestep 0
17440774 | HMC-11 | start reducing for flow 15 (from NI 0) to parent HMC-7 (to NI 0) at timestep 0
17440774 | HMC-3 | start reducing for flow 7 (from NI 0) to parent HMC-2 (to NI 0) at timestep 0
17440774 | HMC-0 | start reducing for flow 1 (from NI 0) to parent HMC-4 (to NI 0) at timestep 0
17440774 | HMC-10 | start reducing for flow 6 (from NI 0) to parent HMC-14 (to NI 0) at timestep 0
17440774 | HMC-5 | start reducing for flow 9 (from NI 0) to parent HMC-6 (to NI 0) at timestep 0
17440774 | HMC-6 | start reducing for flow 5 (from NI 0) to parent HMC-10 (to NI 0) at timestep 0
17440774 | HMC-2 | start reducing for flow 3 (from NI 0) to parent HMC-1 (to NI 0) at timestep 0
17440774 | HMC-4 | start reducing for flow 0 (from NI 0) to parent HMC-8 (to NI 0) at timestep 0
17660014 | HMC-5 | finishes reducing for flow 9 (from NI 0) to parent HMC-6 (to NI 0) at timestep 0
17660014 | HMC-6 | finishes reducing for flow 5 (from NI 0) to parent HMC-10 (to NI 0) at timestep 0
17660014 | HMC-2 | finishes reducing for flow 3 (from NI 0) to parent HMC-1 (to NI 0) at timestep 0
17660014 | HMC-4 | finishes reducing for flow 0 (from NI 0) to parent HMC-8 (to NI 0) at timestep 0
17660014 | HMC-10 | finishes reducing for flow 6 (from NI 0) to parent HMC-14 (to NI 0) at timestep 0
17660015 | HMC-14 | finishes reducing for flow 10 (from NI 0) to parent HMC-15 (to NI 0) at timestep 0
17660015 | HMC-9 | finishes reducing for flow 13 (from NI 0) to parent HMC-5 (to NI 0) at timestep 0
17660015 | HMC-8 | finishes reducing for flow 4 (from NI 0) to parent HMC-12 (to NI 0) at timestep 0
17660015 | HMC-1 | finishes reducing for flow 2 (from NI 0) to parent HMC-0 (to NI 0) at timestep 0
17660015 | HMC-13 | finishes reducing for flow 12 (from NI 0) to parent HMC-9 (to NI 0) at timestep 0
17660015 | HMC-7 | finishes reducing for flow 11 (from NI 0) to parent HMC-3 (to NI 0) at timestep 0
17660015 | HMC-11 | finishes reducing for flow 15 (from NI 0) to parent HMC-7 (to NI 0) at timestep 0
17660015 | HMC-0 | finishes reducing for flow 1 (from NI 0) to parent HMC-4 (to NI 0) at timestep 0
17660015 | HMC-15 | finishes reducing for flow 14 (from NI 0) to parent HMC-11 (to NI 0) at timestep 0
17660015 | HMC-12 | finishes reducing for flow 8 (from NI 0) to parent HMC-13 (to NI 0) at timestep 0
17660015 | HMC-3 | finishes reducing for flow 7 (from NI 0) to parent HMC-2 (to NI 0) at timestep 0
17661068 | HMC-14 | receives full reduce for flow 6 from child HMC-10
17661068 | HMC-15 | receives full reduce for flow 10 from child HMC-14
17661068 | HMC-9 | receives full reduce for flow 12 from child HMC-13
17661068 | HMC-12 | receives full reduce for flow 4 from child HMC-8
17661068 | HMC-8 | receives full reduce for flow 0 from child HMC-4
17661068 | HMC-1 | receives full reduce for flow 3 from child HMC-2
17661068 | HMC-13 | receives full reduce for flow 8 from child HMC-12
17661068 | HMC-7 | receives full reduce for flow 15 from child HMC-11
17661068 | HMC-11 | receives full reduce for flow 14 from child HMC-15
17661068 | HMC-3 | receives full reduce for flow 11 from child HMC-7
17661068 | HMC-0 | receives full reduce for flow 2 from child HMC-1
17661068 | HMC-10 | receives full reduce for flow 5 from child HMC-6
17661068 | HMC-5 | receives full reduce for flow 13 from child HMC-9
17661068 | HMC-6 | receives full reduce for flow 9 from child HMC-5
17661068 | HMC-2 | receives full reduce for flow 7 from child HMC-3
17661068 | HMC-4 | receives full reduce for flow 1 from child HMC-0
17661069 | HMC-14 | starts aggregation, computation state: aggregating, communication state: reduce-scatter
17661069 | HMC-5 | starts aggregation, computation state: aggregating, communication state: reduce-scatter
17661069 | HMC-9 | starts aggregation, computation state: aggregating, communication state: reduce-scatter
17661069 | HMC-6 | starts aggregation, computation state: aggregating, communication state: reduce-scatter
17661069 | HMC-8 | starts aggregation, computation state: aggregating, communication state: reduce-scatter
17661069 | HMC-1 | starts aggregation, computation state: aggregating, communication state: reduce-scatter
17661069 | HMC-13 | starts aggregation, computation state: aggregating, communication state: reduce-scatter
17661069 | HMC-2 | starts aggregation, computation state: aggregating, communication state: reduce-scatter
17661069 | HMC-7 | starts aggregation, computation state: aggregating, communication state: reduce-scatter
17661069 | HMC-11 | starts aggregation, computation state: aggregating, communication state: reduce-scatter
17661069 | HMC-4 | starts aggregation, computation state: aggregating, communication state: reduce-scatter
17661069 | HMC-0 | starts aggregation, computation state: aggregating, communication state: reduce-scatter
17661069 | HMC-15 | starts aggregation, computation state: aggregating, communication state: reduce-scatter
17661069 | HMC-12 | starts aggregation, computation state: aggregating, communication state: reduce-scatter
17661069 | HMC-10 | starts aggregation, computation state: aggregating, communication state: reduce-scatter
17661069 | HMC-3 | starts aggregation, computation state: aggregating, communication state: reduce-scatter
17686973 | HMC-14 | clear pending aggregation for flow 6 from child HMC-10
17686973 | HMC-14 | finishes aggregation , computation state: idle, communication state: reduce-scatter
17686973 | HMC-15 | clear pending aggregation for flow 10 from child HMC-14
17686973 | HMC-15 | finishes aggregation , computation state: idle, communication state: reduce-scatter
17686973 | HMC-9 | clear pending aggregation for flow 12 from child HMC-13
17686973 | HMC-9 | finishes aggregation , computation state: idle, communication state: reduce-scatter
17686973 | HMC-12 | clear pending aggregation for flow 4 from child HMC-8
17686973 | HMC-12 | finishes aggregation , computation state: idle, communication state: reduce-scatter
17686973 | HMC-8 | clear pending aggregation for flow 0 from child HMC-4
17686973 | HMC-8 | finishes aggregation , computation state: idle, communication state: reduce-scatter
17686973 | HMC-1 | clear pending aggregation for flow 3 from child HMC-2
17686973 | HMC-1 | finishes aggregation , computation state: idle, communication state: reduce-scatter
17686973 | HMC-13 | clear pending aggregation for flow 8 from child HMC-12
17686973 | HMC-13 | finishes aggregation , computation state: idle, communication state: reduce-scatter
17686973 | HMC-7 | clear pending aggregation for flow 15 from child HMC-11
17686973 | HMC-7 | finishes aggregation , computation state: idle, communication state: reduce-scatter
17686973 | HMC-11 | clear pending aggregation for flow 14 from child HMC-15
17686973 | HMC-11 | finishes aggregation , computation state: idle, communication state: reduce-scatter
17686973 | HMC-3 | clear pending aggregation for flow 11 from child HMC-7
17686973 | HMC-3 | finishes aggregation , computation state: idle, communication state: reduce-scatter
17686973 | HMC-0 | clear pending aggregation for flow 2 from child HMC-1
17686973 | HMC-0 | finishes aggregation , computation state: idle, communication state: reduce-scatter
17686973 | HMC-10 | clear pending aggregation for flow 5 from child HMC-6
17686973 | HMC-10 | finishes aggregation , computation state: idle, communication state: reduce-scatter
17686973 | HMC-5 | clear pending aggregation for flow 13 from child HMC-9
17686973 | HMC-5 | finishes aggregation , computation state: idle, communication state: reduce-scatter
17686973 | HMC-6 | clear pending aggregation for flow 9 from child HMC-5
17686973 | HMC-6 | finishes aggregation , computation state: idle, communication state: reduce-scatter
17686973 | HMC-2 | clear pending aggregation for flow 7 from child HMC-3
17686973 | HMC-2 | finishes aggregation , computation state: idle, communication state: reduce-scatter
17686973 | HMC-4 | clear pending aggregation for flow 1 from child HMC-0
17686973 | HMC-4 | finishes aggregation , computation state: idle, communication state: reduce-scatter
17686974 | HMC-14 | start reducing for flow 6 (from NI 0) to parent HMC-15 (to NI 0) at timestep 1
17686974 | HMC-5 | start reducing for flow 13 (from NI 0) to parent HMC-6 (to NI 0) at timestep 1
17686974 | HMC-9 | start reducing for flow 12 (from NI 0) to parent HMC-5 (to NI 0) at timestep 1
17686974 | HMC-6 | start reducing for flow 9 (from NI 0) to parent HMC-10 (to NI 0) at timestep 1
17686974 | HMC-8 | start reducing for flow 0 (from NI 0) to parent HMC-12 (to NI 0) at timestep 1
17686974 | HMC-1 | start reducing for flow 3 (from NI 0) to parent HMC-0 (to NI 0) at timestep 1
17686974 | HMC-13 | start reducing for flow 8 (from NI 0) to parent HMC-9 (to NI 0) at timestep 1
17686974 | HMC-7 | start reducing for flow 15 (from NI 0) to parent HMC-3 (to NI 0) at timestep 1
17686974 | HMC-11 | start reducing for flow 14 (from NI 0) to parent HMC-7 (to NI 0) at timestep 1
17686974 | HMC-4 | start reducing for flow 1 (from NI 0) to parent HMC-8 (to NI 0) at timestep 1
17686974 | HMC-0 | start reducing for flow 2 (from NI 0) to parent HMC-4 (to NI 0) at timestep 1
17686974 | HMC-10 | start reducing for flow 5 (from NI 0) to parent HMC-14 (to NI 0) at timestep 1
17686974 | HMC-15 | start reducing for flow 10 (from NI 0) to parent HMC-11 (to NI 0) at timestep 1
17686974 | HMC-12 | start reducing for flow 4 (from NI 0) to parent HMC-13 (to NI 0) at timestep 1
17686974 | HMC-2 | start reducing for flow 7 (from NI 0) to parent HMC-1 (to NI 0) at timestep 1
17686974 | HMC-3 | start reducing for flow 11 (from NI 0) to parent HMC-2 (to NI 0) at timestep 1
17906214 | HMC-15 | finishes reducing for flow 10 (from NI 0) to parent HMC-11 (to NI 0) at timestep 1
17906214 | HMC-12 | finishes reducing for flow 4 (from NI 0) to parent HMC-13 (to NI 0) at timestep 1
17906214 | HMC-2 | finishes reducing for flow 7 (from NI 0) to parent HMC-1 (to NI 0) at timestep 1
17906214 | HMC-3 | finishes reducing for flow 11 (from NI 0) to parent HMC-2 (to NI 0) at timestep 1
17906214 | HMC-10 | finishes reducing for flow 5 (from NI 0) to parent HMC-14 (to NI 0) at timestep 1
17906215 | HMC-14 | finishes reducing for flow 6 (from NI 0) to parent HMC-15 (to NI 0) at timestep 1
17906215 | HMC-9 | finishes reducing for flow 12 (from NI 0) to parent HMC-5 (to NI 0) at timestep 1
17906215 | HMC-8 | finishes reducing for flow 0 (from NI 0) to parent HMC-12 (to NI 0) at timestep 1
17906215 | HMC-1 | finishes reducing for flow 3 (from NI 0) to parent HMC-0 (to NI 0) at timestep 1
17906215 | HMC-13 | finishes reducing for flow 8 (from NI 0) to parent HMC-9 (to NI 0) at timestep 1
17906215 | HMC-7 | finishes reducing for flow 15 (from NI 0) to parent HMC-3 (to NI 0) at timestep 1
17906215 | HMC-11 | finishes reducing for flow 14 (from NI 0) to parent HMC-7 (to NI 0) at timestep 1
17906215 | HMC-0 | finishes reducing for flow 2 (from NI 0) to parent HMC-4 (to NI 0) at timestep 1
17906215 | HMC-5 | finishes reducing for flow 13 (from NI 0) to parent HMC-6 (to NI 0) at timestep 1
17906215 | HMC-6 | finishes reducing for flow 9 (from NI 0) to parent HMC-10 (to NI 0) at timestep 1
17906215 | HMC-4 | finishes reducing for flow 1 (from NI 0) to parent HMC-8 (to NI 0) at timestep 1
17907268 | HMC-14 | receives full reduce for flow 5 from child HMC-10
17907268 | HMC-15 | receives full reduce for flow 6 from child HMC-14
17907268 | HMC-9 | receives full reduce for flow 8 from child HMC-13
17907268 | HMC-12 | receives full reduce for flow 0 from child HMC-8
17907268 | HMC-8 | receives full reduce for flow 1 from child HMC-4
17907268 | HMC-1 | receives full reduce for flow 7 from child HMC-2
17907268 | HMC-13 | receives full reduce for flow 4 from child HMC-12
17907268 | HMC-7 | receives full reduce for flow 14 from child HMC-11
17907268 | HMC-11 | receives full reduce for flow 10 from child HMC-15
17907268 | HMC-3 | receives full reduce for flow 15 from child HMC-7
17907268 | HMC-0 | receives full reduce for flow 3 from child HMC-1
17907268 | HMC-10 | receives full reduce for flow 9 from child HMC-6
17907268 | HMC-5 | receives full reduce for flow 12 from child HMC-9
17907268 | HMC-6 | receives full reduce for flow 13 from child HMC-5
17907268 | HMC-2 | receives full reduce for flow 11 from child HMC-3
17907268 | HMC-4 | receives full reduce for flow 2 from child HMC-0
17907269 | HMC-14 | starts aggregation, computation state: aggregating, communication state: reduce-scatter
17907269 | HMC-5 | starts aggregation, computation state: aggregating, communication state: reduce-scatter
17907269 | HMC-9 | starts aggregation, computation state: aggregating, communication state: reduce-scatter
17907269 | HMC-6 | starts aggregation, computation state: aggregating, communication state: reduce-scatter
17907269 | HMC-8 | starts aggregation, computation state: aggregating, communication state: reduce-scatter
17907269 | HMC-1 | starts aggregation, computation state: aggregating, communication state: reduce-scatter
17907269 | HMC-13 | starts aggregation, computation state: aggregating, communication state: reduce-scatter
17907269 | HMC-2 | starts aggregation, computation state: aggregating, communication state: reduce-scatter
17907269 | HMC-7 | starts aggregation, computation state: aggregating, communication state: reduce-scatter
17907269 | HMC-11 | starts aggregation, computation state: aggregating, communication state: reduce-scatter
17907269 | HMC-4 | starts aggregation, computation state: aggregating, communication state: reduce-scatter
17907269 | HMC-0 | starts aggregation, computation state: aggregating, communication state: reduce-scatter
17907269 | HMC-15 | starts aggregation, computation state: aggregating, communication state: reduce-scatter
17907269 | HMC-12 | starts aggregation, computation state: aggregating, communication state: reduce-scatter
17907269 | HMC-10 | starts aggregation, computation state: aggregating, communication state: reduce-scatter
17907269 | HMC-3 | starts aggregation, computation state: aggregating, communication state: reduce-scatter
17933173 | HMC-14 | clear pending aggregation for flow 5 from child HMC-10
17933173 | HMC-14 | finishes aggregation , computation state: idle, communication state: reduce-scatter
17933173 | HMC-15 | clear pending aggregation for flow 6 from child HMC-14
17933173 | HMC-15 | finishes aggregation , computation state: idle, communication state: reduce-scatter
17933173 | HMC-9 | clear pending aggregation for flow 8 from child HMC-13
17933173 | HMC-9 | finishes aggregation , computation state: idle, communication state: reduce-scatter
17933173 | HMC-12 | clear pending aggregation for flow 0 from child HMC-8
17933173 | HMC-12 | finishes aggregation , computation state: idle, communication state: reduce-scatter
17933173 | HMC-8 | clear pending aggregation for flow 1 from child HMC-4
17933173 | HMC-8 | finishes aggregation , computation state: idle, communication state: reduce-scatter
17933173 | HMC-1 | clear pending aggregation for flow 7 from child HMC-2
17933173 | HMC-1 | finishes aggregation , computation state: idle, communication state: reduce-scatter
17933173 | HMC-13 | clear pending aggregation for flow 4 from child HMC-12
17933173 | HMC-13 | finishes aggregation , computation state: idle, communication state: reduce-scatter
17933173 | HMC-7 | clear pending aggregation for flow 14 from child HMC-11
17933173 | HMC-7 | finishes aggregation , computation state: idle, communication state: reduce-scatter
17933173 | HMC-11 | clear pending aggregation for flow 10 from child HMC-15
17933173 | HMC-11 | finishes aggregation , computation state: idle, communication state: reduce-scatter
17933173 | HMC-3 | clear pending aggregation for flow 15 from child HMC-7
17933173 | HMC-3 | finishes aggregation , computation state: idle, communication state: reduce-scatter
17933173 | HMC-0 | clear pending aggregation for flow 3 from child HMC-1
17933173 | HMC-0 | finishes aggregation , computation state: idle, communication state: reduce-scatter
17933173 | HMC-10 | clear pending aggregation for flow 9 from child HMC-6
17933173 | HMC-10 | finishes aggregation , computation state: idle, communication state: reduce-scatter
17933173 | HMC-5 | clear pending aggregation for flow 12 from child HMC-9
17933173 | HMC-5 | finishes aggregation , computation state: idle, communication state: reduce-scatter
17933173 | HMC-6 | clear pending aggregation for flow 13 from child HMC-5
17933173 | HMC-6 | finishes aggregation , computation state: idle, communication state: reduce-scatter
17933173 | HMC-2 | clear pending aggregation for flow 11 from child HMC-3
17933173 | HMC-2 | finishes aggregation , computation state: idle, communication state: reduce-scatter
17933173 | HMC-4 | clear pending aggregation for flow 2 from child HMC-0
17933173 | HMC-4 | finishes aggregation , computation state: idle, communication state: reduce-scatter
17933174 | HMC-14 | start reducing for flow 5 (from NI 0) to parent HMC-15 (to NI 0) at timestep 2
17933174 | HMC-5 | start reducing for flow 12 (from NI 0) to parent HMC-6 (to NI 0) at timestep 2
17933174 | HMC-9 | start reducing for flow 8 (from NI 0) to parent HMC-5 (to NI 0) at timestep 2
17933174 | HMC-6 | start reducing for flow 13 (from NI 0) to parent HMC-10 (to NI 0) at timestep 2
17933174 | HMC-8 | start reducing for flow 1 (from NI 0) to parent HMC-12 (to NI 0) at timestep 2
17933174 | HMC-1 | start reducing for flow 7 (from NI 0) to parent HMC-0 (to NI 0) at timestep 2
17933174 | HMC-13 | start reducing for flow 4 (from NI 0) to parent HMC-9 (to NI 0) at timestep 2
17933174 | HMC-7 | start reducing for flow 14 (from NI 0) to parent HMC-3 (to NI 0) at timestep 2
17933174 | HMC-11 | start reducing for flow 10 (from NI 0) to parent HMC-7 (to NI 0) at timestep 2
17933174 | HMC-4 | start reducing for flow 2 (from NI 0) to parent HMC-8 (to NI 0) at timestep 2
17933174 | HMC-0 | start reducing for flow 3 (from NI 0) to parent HMC-4 (to NI 0) at timestep 2
17933174 | HMC-10 | start reducing for flow 9 (from NI 0) to parent HMC-14 (to NI 0) at timestep 2
17933174 | HMC-15 | start reducing for flow 6 (from NI 0) to parent HMC-11 (to NI 0) at timestep 2
17933174 | HMC-12 | start reducing for flow 0 (from NI 0) to parent HMC-13 (to NI 0) at timestep 2
17933174 | HMC-2 | start reducing for flow 11 (from NI 0) to parent HMC-1 (to NI 0) at timestep 2
17933174 | HMC-3 | start reducing for flow 15 (from NI 0) to parent HMC-2 (to NI 0) at timestep 2
18152414 | HMC-15 | finishes reducing for flow 6 (from NI 0) to parent HMC-11 (to NI 0) at timestep 2
18152414 | HMC-12 | finishes reducing for flow 0 (from NI 0) to parent HMC-13 (to NI 0) at timestep 2
18152414 | HMC-2 | finishes reducing for flow 11 (from NI 0) to parent HMC-1 (to NI 0) at timestep 2
18152414 | HMC-3 | finishes reducing for flow 15 (from NI 0) to parent HMC-2 (to NI 0) at timestep 2
18152414 | HMC-10 | finishes reducing for flow 9 (from NI 0) to parent HMC-14 (to NI 0) at timestep 2
18152415 | HMC-14 | finishes reducing for flow 5 (from NI 0) to parent HMC-15 (to NI 0) at timestep 2
18152415 | HMC-9 | finishes reducing for flow 8 (from NI 0) to parent HMC-5 (to NI 0) at timestep 2
18152415 | HMC-8 | finishes reducing for flow 1 (from NI 0) to parent HMC-12 (to NI 0) at timestep 2
18152415 | HMC-1 | finishes reducing for flow 7 (from NI 0) to parent HMC-0 (to NI 0) at timestep 2
18152415 | HMC-13 | finishes reducing for flow 4 (from NI 0) to parent HMC-9 (to NI 0) at timestep 2
18152415 | HMC-7 | finishes reducing for flow 14 (from NI 0) to parent HMC-3 (to NI 0) at timestep 2
18152415 | HMC-11 | finishes reducing for flow 10 (from NI 0) to parent HMC-7 (to NI 0) at timestep 2
18152415 | HMC-0 | finishes reducing for flow 3 (from NI 0) to parent HMC-4 (to NI 0) at timestep 2
18152415 | HMC-5 | finishes reducing for flow 12 (from NI 0) to parent HMC-6 (to NI 0) at timestep 2
18152415 | HMC-6 | finishes reducing for flow 13 (from NI 0) to parent HMC-10 (to NI 0) at timestep 2
18152415 | HMC-4 | finishes reducing for flow 2 (from NI 0) to parent HMC-8 (to NI 0) at timestep 2
18153468 | HMC-14 | receives full reduce for flow 9 from child HMC-10
18153468 | HMC-15 | receives full reduce for flow 5 from child HMC-14
18153468 | HMC-9 | receives full reduce for flow 4 from child HMC-13
18153468 | HMC-12 | receives full reduce for flow 1 from child HMC-8
18153468 | HMC-8 | receives full reduce for flow 2 from child HMC-4
18153468 | HMC-1 | receives full reduce for flow 11 from child HMC-2
18153468 | HMC-13 | receives full reduce for flow 0 from child HMC-12
18153468 | HMC-7 | receives full reduce for flow 10 from child HMC-11
18153468 | HMC-11 | receives full reduce for flow 6 from child HMC-15
18153468 | HMC-3 | receives full reduce for flow 14 from child HMC-7
18153468 | HMC-0 | receives full reduce for flow 7 from child HMC-1
18153468 | HMC-10 | receives full reduce for flow 13 from child HMC-6
18153468 | HMC-5 | receives full reduce for flow 8 from child HMC-9
18153468 | HMC-6 | receives full reduce for flow 12 from child HMC-5
18153468 | HMC-2 | receives full reduce for flow 15 from child HMC-3
18153468 | HMC-4 | receives full reduce for flow 3 from child HMC-0
18153469 | HMC-14 | starts aggregation, computation state: aggregating, communication state: reduce-scatter
18153469 | HMC-5 | starts aggregation, computation state: aggregating, communication state: reduce-scatter
18153469 | HMC-9 | starts aggregation, computation state: aggregating, communication state: reduce-scatter
18153469 | HMC-6 | starts aggregation, computation state: aggregating, communication state: reduce-scatter
18153469 | HMC-8 | starts aggregation, computation state: aggregating, communication state: reduce-scatter
18153469 | HMC-1 | starts aggregation, computation state: aggregating, communication state: reduce-scatter
18153469 | HMC-13 | starts aggregation, computation state: aggregating, communication state: reduce-scatter
18153469 | HMC-2 | starts aggregation, computation state: aggregating, communication state: reduce-scatter
18153469 | HMC-7 | starts aggregation, computation state: aggregating, communication state: reduce-scatter
18153469 | HMC-11 | starts aggregation, computation state: aggregating, communication state: reduce-scatter
18153469 | HMC-4 | starts aggregation, computation state: aggregating, communication state: reduce-scatter
18153469 | HMC-0 | starts aggregation, computation state: aggregating, communication state: reduce-scatter
18153469 | HMC-15 | starts aggregation, computation state: aggregating, communication state: reduce-scatter
18153469 | HMC-12 | starts aggregation, computation state: aggregating, communication state: reduce-scatter
18153469 | HMC-10 | starts aggregation, computation state: aggregating, communication state: reduce-scatter
18153469 | HMC-3 | starts aggregation, computation state: aggregating, communication state: reduce-scatter
18179373 | HMC-14 | clear pending aggregation for flow 9 from child HMC-10
18179373 | HMC-14 | finishes aggregation , computation state: idle, communication state: reduce-scatter
18179373 | HMC-15 | clear pending aggregation for flow 5 from child HMC-14
18179373 | HMC-15 | finishes aggregation , computation state: idle, communication state: reduce-scatter
18179373 | HMC-9 | clear pending aggregation for flow 4 from child HMC-13
18179373 | HMC-9 | finishes aggregation , computation state: idle, communication state: reduce-scatter
18179373 | HMC-12 | clear pending aggregation for flow 1 from child HMC-8
18179373 | HMC-12 | finishes aggregation , computation state: idle, communication state: reduce-scatter
18179373 | HMC-8 | clear pending aggregation for flow 2 from child HMC-4
18179373 | HMC-8 | finishes aggregation , computation state: idle, communication state: reduce-scatter
18179373 | HMC-1 | clear pending aggregation for flow 11 from child HMC-2
18179373 | HMC-1 | finishes aggregation , computation state: idle, communication state: reduce-scatter
18179373 | HMC-13 | clear pending aggregation for flow 0 from child HMC-12
18179373 | HMC-13 | finishes aggregation , computation state: idle, communication state: reduce-scatter
18179373 | HMC-7 | clear pending aggregation for flow 10 from child HMC-11
18179373 | HMC-7 | finishes aggregation , computation state: idle, communication state: reduce-scatter
18179373 | HMC-11 | clear pending aggregation for flow 6 from child HMC-15
18179373 | HMC-11 | finishes aggregation , computation state: idle, communication state: reduce-scatter
18179373 | HMC-3 | clear pending aggregation for flow 14 from child HMC-7
18179373 | HMC-3 | finishes aggregation , computation state: idle, communication state: reduce-scatter
18179373 | HMC-0 | clear pending aggregation for flow 7 from child HMC-1
18179373 | HMC-0 | finishes aggregation , computation state: idle, communication state: reduce-scatter
18179373 | HMC-10 | clear pending aggregation for flow 13 from child HMC-6
18179373 | HMC-10 | finishes aggregation , computation state: idle, communication state: reduce-scatter
18179373 | HMC-5 | clear pending aggregation for flow 8 from child HMC-9
18179373 | HMC-5 | finishes aggregation , computation state: idle, communication state: reduce-scatter
18179373 | HMC-6 | clear pending aggregation for flow 12 from child HMC-5
18179373 | HMC-6 | finishes aggregation , computation state: idle, communication state: reduce-scatter
18179373 | HMC-2 | clear pending aggregation for flow 15 from child HMC-3
18179373 | HMC-2 | finishes aggregation , computation state: idle, communication state: reduce-scatter
18179373 | HMC-4 | clear pending aggregation for flow 3 from child HMC-0
18179373 | HMC-4 | finishes aggregation , computation state: idle, communication state: reduce-scatter
18179374 | HMC-14 | start reducing for flow 9 (from NI 0) to parent HMC-15 (to NI 0) at timestep 3
18179374 | HMC-5 | start reducing for flow 8 (from NI 0) to parent HMC-6 (to NI 0) at timestep 3
18179374 | HMC-9 | start reducing for flow 4 (from NI 0) to parent HMC-5 (to NI 0) at timestep 3
18179374 | HMC-6 | start reducing for flow 12 (from NI 0) to parent HMC-10 (to NI 0) at timestep 3
18179374 | HMC-8 | start reducing for flow 2 (from NI 0) to parent HMC-12 (to NI 0) at timestep 3
18179374 | HMC-1 | start reducing for flow 11 (from NI 0) to parent HMC-0 (to NI 0) at timestep 3
18179374 | HMC-13 | start reducing for flow 0 (from NI 0) to parent HMC-9 (to NI 0) at timestep 3
18179374 | HMC-7 | start reducing for flow 10 (from NI 0) to parent HMC-3 (to NI 0) at timestep 3
18179374 | HMC-11 | start reducing for flow 6 (from NI 0) to parent HMC-7 (to NI 0) at timestep 3
18179374 | HMC-4 | start reducing for flow 3 (from NI 0) to parent HMC-8 (to NI 0) at timestep 3
18179374 | HMC-0 | start reducing for flow 7 (from NI 0) to parent HMC-4 (to NI 0) at timestep 3
18179374 | HMC-10 | start reducing for flow 13 (from NI 0) to parent HMC-14 (to NI 0) at timestep 3
18179374 | HMC-15 | start reducing for flow 5 (from NI 0) to parent HMC-11 (to NI 0) at timestep 3
18179374 | HMC-12 | start reducing for flow 1 (from NI 0) to parent HMC-13 (to NI 0) at timestep 3
18179374 | HMC-2 | start reducing for flow 15 (from NI 0) to parent HMC-1 (to NI 0) at timestep 3
18179374 | HMC-3 | start reducing for flow 14 (from NI 0) to parent HMC-2 (to NI 0) at timestep 3
18398614 | HMC-15 | finishes reducing for flow 5 (from NI 0) to parent HMC-11 (to NI 0) at timestep 3
18398614 | HMC-12 | finishes reducing for flow 1 (from NI 0) to parent HMC-13 (to NI 0) at timestep 3
18398614 | HMC-2 | finishes reducing for flow 15 (from NI 0) to parent HMC-1 (to NI 0) at timestep 3
18398614 | HMC-3 | finishes reducing for flow 14 (from NI 0) to parent HMC-2 (to NI 0) at timestep 3
18398614 | HMC-10 | finishes reducing for flow 13 (from NI 0) to parent HMC-14 (to NI 0) at timestep 3
18398615 | HMC-14 | finishes reducing for flow 9 (from NI 0) to parent HMC-15 (to NI 0) at timestep 3
18398615 | HMC-9 | finishes reducing for flow 4 (from NI 0) to parent HMC-5 (to NI 0) at timestep 3
18398615 | HMC-8 | finishes reducing for flow 2 (from NI 0) to parent HMC-12 (to NI 0) at timestep 3
18398615 | HMC-1 | finishes reducing for flow 11 (from NI 0) to parent HMC-0 (to NI 0) at timestep 3
18398615 | HMC-13 | finishes reducing for flow 0 (from NI 0) to parent HMC-9 (to NI 0) at timestep 3
18398615 | HMC-7 | finishes reducing for flow 10 (from NI 0) to parent HMC-3 (to NI 0) at timestep 3
18398615 | HMC-11 | finishes reducing for flow 6 (from NI 0) to parent HMC-7 (to NI 0) at timestep 3
18398615 | HMC-0 | finishes reducing for flow 7 (from NI 0) to parent HMC-4 (to NI 0) at timestep 3
18398615 | HMC-5 | finishes reducing for flow 8 (from NI 0) to parent HMC-6 (to NI 0) at timestep 3
18398615 | HMC-6 | finishes reducing for flow 12 (from NI 0) to parent HMC-10 (to NI 0) at timestep 3
18398615 | HMC-4 | finishes reducing for flow 3 (from NI 0) to parent HMC-8 (to NI 0) at timestep 3
18399668 | HMC-14 | receives full reduce for flow 13 from child HMC-10
18399668 | HMC-15 | receives full reduce for flow 9 from child HMC-14
18399668 | HMC-9 | receives full reduce for flow 0 from child HMC-13
18399668 | HMC-12 | receives full reduce for flow 2 from child HMC-8
18399668 | HMC-8 | receives full reduce for flow 3 from child HMC-4
18399668 | HMC-1 | receives full reduce for flow 15 from child HMC-2
18399668 | HMC-13 | receives full reduce for flow 1 from child HMC-12
18399668 | HMC-7 | receives full reduce for flow 6 from child HMC-11
18399668 | HMC-11 | receives full reduce for flow 5 from child HMC-15
18399668 | HMC-3 | receives full reduce for flow 10 from child HMC-7
18399668 | HMC-0 | receives full reduce for flow 11 from child HMC-1
18399668 | HMC-10 | receives full reduce for flow 12 from child HMC-6
18399668 | HMC-5 | receives full reduce for flow 4 from child HMC-9
18399668 | HMC-6 | receives full reduce for flow 8 from child HMC-5
18399668 | HMC-2 | receives full reduce for flow 14 from child HMC-3
18399668 | HMC-4 | receives full reduce for flow 7 from child HMC-0
18399669 | HMC-14 | starts aggregation, computation state: aggregating, communication state: reduce-scatter
18399669 | HMC-5 | starts aggregation, computation state: aggregating, communication state: reduce-scatter
18399669 | HMC-9 | starts aggregation, computation state: aggregating, communication state: reduce-scatter
18399669 | HMC-6 | starts aggregation, computation state: aggregating, communication state: reduce-scatter
18399669 | HMC-8 | starts aggregation, computation state: aggregating, communication state: reduce-scatter
18399669 | HMC-1 | starts aggregation, computation state: aggregating, communication state: reduce-scatter
18399669 | HMC-13 | starts aggregation, computation state: aggregating, communication state: reduce-scatter
18399669 | HMC-2 | starts aggregation, computation state: aggregating, communication state: reduce-scatter
18399669 | HMC-7 | starts aggregation, computation state: aggregating, communication state: reduce-scatter
18399669 | HMC-11 | starts aggregation, computation state: aggregating, communication state: reduce-scatter
18399669 | HMC-4 | starts aggregation, computation state: aggregating, communication state: reduce-scatter
18399669 | HMC-0 | starts aggregation, computation state: aggregating, communication state: reduce-scatter
18399669 | HMC-15 | starts aggregation, computation state: aggregating, communication state: reduce-scatter
18399669 | HMC-12 | starts aggregation, computation state: aggregating, communication state: reduce-scatter
18399669 | HMC-10 | starts aggregation, computation state: aggregating, communication state: reduce-scatter
18399669 | HMC-3 | starts aggregation, computation state: aggregating, communication state: reduce-scatter
18425573 | HMC-14 | clear pending aggregation for flow 13 from child HMC-10
18425573 | HMC-14 | finishes aggregation , computation state: idle, communication state: reduce-scatter
18425573 | HMC-15 | clear pending aggregation for flow 9 from child HMC-14
18425573 | HMC-15 | finishes aggregation , computation state: idle, communication state: reduce-scatter
18425573 | HMC-9 | clear pending aggregation for flow 0 from child HMC-13
18425573 | HMC-9 | finishes aggregation , computation state: idle, communication state: reduce-scatter
18425573 | HMC-12 | clear pending aggregation for flow 2 from child HMC-8
18425573 | HMC-12 | finishes aggregation , computation state: idle, communication state: reduce-scatter
18425573 | HMC-8 | clear pending aggregation for flow 3 from child HMC-4
18425573 | HMC-8 | finishes aggregation , computation state: idle, communication state: reduce-scatter
18425573 | HMC-1 | clear pending aggregation for flow 15 from child HMC-2
18425573 | HMC-1 | finishes aggregation , computation state: idle, communication state: reduce-scatter
18425573 | HMC-13 | clear pending aggregation for flow 1 from child HMC-12
18425573 | HMC-13 | finishes aggregation , computation state: idle, communication state: reduce-scatter
18425573 | HMC-7 | clear pending aggregation for flow 6 from child HMC-11
18425573 | HMC-7 | finishes aggregation , computation state: idle, communication state: reduce-scatter
18425573 | HMC-11 | clear pending aggregation for flow 5 from child HMC-15
18425573 | HMC-11 | finishes aggregation , computation state: idle, communication state: reduce-scatter
18425573 | HMC-3 | clear pending aggregation for flow 10 from child HMC-7
18425573 | HMC-3 | finishes aggregation , computation state: idle, communication state: reduce-scatter
18425573 | HMC-0 | clear pending aggregation for flow 11 from child HMC-1
18425573 | HMC-0 | finishes aggregation , computation state: idle, communication state: reduce-scatter
18425573 | HMC-10 | clear pending aggregation for flow 12 from child HMC-6
18425573 | HMC-10 | finishes aggregation , computation state: idle, communication state: reduce-scatter
18425573 | HMC-5 | clear pending aggregation for flow 4 from child HMC-9
18425573 | HMC-5 | finishes aggregation , computation state: idle, communication state: reduce-scatter
18425573 | HMC-6 | clear pending aggregation for flow 8 from child HMC-5
18425573 | HMC-6 | finishes aggregation , computation state: idle, communication state: reduce-scatter
18425573 | HMC-2 | clear pending aggregation for flow 14 from child HMC-3
18425573 | HMC-2 | finishes aggregation , computation state: idle, communication state: reduce-scatter
18425573 | HMC-4 | clear pending aggregation for flow 7 from child HMC-0
18425573 | HMC-4 | finishes aggregation , computation state: idle, communication state: reduce-scatter
18425574 | HMC-14 | start reducing for flow 13 (from NI 0) to parent HMC-15 (to NI 0) at timestep 4
18425574 | HMC-5 | start reducing for flow 4 (from NI 0) to parent HMC-6 (to NI 0) at timestep 4
18425574 | HMC-9 | start reducing for flow 0 (from NI 0) to parent HMC-5 (to NI 0) at timestep 4
18425574 | HMC-6 | start reducing for flow 8 (from NI 0) to parent HMC-10 (to NI 0) at timestep 4
18425574 | HMC-8 | start reducing for flow 3 (from NI 0) to parent HMC-12 (to NI 0) at timestep 4
18425574 | HMC-1 | start reducing for flow 15 (from NI 0) to parent HMC-0 (to NI 0) at timestep 4
18425574 | HMC-13 | start reducing for flow 1 (from NI 0) to parent HMC-9 (to NI 0) at timestep 4
18425574 | HMC-7 | start reducing for flow 6 (from NI 0) to parent HMC-3 (to NI 0) at timestep 4
18425574 | HMC-11 | start reducing for flow 5 (from NI 0) to parent HMC-7 (to NI 0) at timestep 4
18425574 | HMC-4 | start reducing for flow 7 (from NI 0) to parent HMC-8 (to NI 0) at timestep 4
18425574 | HMC-0 | start reducing for flow 11 (from NI 0) to parent HMC-4 (to NI 0) at timestep 4
18425574 | HMC-10 | start reducing for flow 12 (from NI 0) to parent HMC-14 (to NI 0) at timestep 4
18425574 | HMC-15 | start reducing for flow 9 (from NI 0) to parent HMC-11 (to NI 0) at timestep 4
18425574 | HMC-12 | start reducing for flow 2 (from NI 0) to parent HMC-13 (to NI 0) at timestep 4
18425574 | HMC-2 | start reducing for flow 14 (from NI 0) to parent HMC-1 (to NI 0) at timestep 4
18425574 | HMC-3 | start reducing for flow 10 (from NI 0) to parent HMC-2 (to NI 0) at timestep 4
18644814 | HMC-15 | finishes reducing for flow 9 (from NI 0) to parent HMC-11 (to NI 0) at timestep 4
18644814 | HMC-12 | finishes reducing for flow 2 (from NI 0) to parent HMC-13 (to NI 0) at timestep 4
18644814 | HMC-2 | finishes reducing for flow 14 (from NI 0) to parent HMC-1 (to NI 0) at timestep 4
18644814 | HMC-3 | finishes reducing for flow 10 (from NI 0) to parent HMC-2 (to NI 0) at timestep 4
18644814 | HMC-10 | finishes reducing for flow 12 (from NI 0) to parent HMC-14 (to NI 0) at timestep 4
18644815 | HMC-14 | finishes reducing for flow 13 (from NI 0) to parent HMC-15 (to NI 0) at timestep 4
18644815 | HMC-9 | finishes reducing for flow 0 (from NI 0) to parent HMC-5 (to NI 0) at timestep 4
18644815 | HMC-8 | finishes reducing for flow 3 (from NI 0) to parent HMC-12 (to NI 0) at timestep 4
18644815 | HMC-1 | finishes reducing for flow 15 (from NI 0) to parent HMC-0 (to NI 0) at timestep 4
18644815 | HMC-13 | finishes reducing for flow 1 (from NI 0) to parent HMC-9 (to NI 0) at timestep 4
18644815 | HMC-7 | finishes reducing for flow 6 (from NI 0) to parent HMC-3 (to NI 0) at timestep 4
18644815 | HMC-11 | finishes reducing for flow 5 (from NI 0) to parent HMC-7 (to NI 0) at timestep 4
18644815 | HMC-0 | finishes reducing for flow 11 (from NI 0) to parent HMC-4 (to NI 0) at timestep 4
18644815 | HMC-5 | finishes reducing for flow 4 (from NI 0) to parent HMC-6 (to NI 0) at timestep 4
18644815 | HMC-6 | finishes reducing for flow 8 (from NI 0) to parent HMC-10 (to NI 0) at timestep 4
18644815 | HMC-4 | finishes reducing for flow 7 (from NI 0) to parent HMC-8 (to NI 0) at timestep 4
18645868 | HMC-14 | receives full reduce for flow 12 from child HMC-10
18645868 | HMC-15 | receives full reduce for flow 13 from child HMC-14
18645868 | HMC-9 | receives full reduce for flow 1 from child HMC-13
18645868 | HMC-12 | receives full reduce for flow 3 from child HMC-8
18645868 | HMC-8 | receives full reduce for flow 7 from child HMC-4
18645868 | HMC-1 | receives full reduce for flow 14 from child HMC-2
18645868 | HMC-13 | receives full reduce for flow 2 from child HMC-12
18645868 | HMC-7 | receives full reduce for flow 5 from child HMC-11
18645868 | HMC-11 | receives full reduce for flow 9 from child HMC-15
18645868 | HMC-3 | receives full reduce for flow 6 from child HMC-7
18645868 | HMC-0 | receives full reduce for flow 15 from child HMC-1
18645868 | HMC-10 | receives full reduce for flow 8 from child HMC-6
18645868 | HMC-5 | receives full reduce for flow 0 from child HMC-9
18645868 | HMC-6 | receives full reduce for flow 4 from child HMC-5
18645868 | HMC-2 | receives full reduce for flow 10 from child HMC-3
18645868 | HMC-4 | receives full reduce for flow 11 from child HMC-0
18645869 | HMC-14 | starts aggregation, computation state: aggregating, communication state: reduce-scatter
18645869 | HMC-5 | starts aggregation, computation state: aggregating, communication state: reduce-scatter
18645869 | HMC-9 | starts aggregation, computation state: aggregating, communication state: reduce-scatter
18645869 | HMC-6 | starts aggregation, computation state: aggregating, communication state: reduce-scatter
18645869 | HMC-8 | starts aggregation, computation state: aggregating, communication state: reduce-scatter
18645869 | HMC-1 | starts aggregation, computation state: aggregating, communication state: reduce-scatter
18645869 | HMC-13 | starts aggregation, computation state: aggregating, communication state: reduce-scatter
18645869 | HMC-2 | starts aggregation, computation state: aggregating, communication state: reduce-scatter
18645869 | HMC-7 | starts aggregation, computation state: aggregating, communication state: reduce-scatter
18645869 | HMC-11 | starts aggregation, computation state: aggregating, communication state: reduce-scatter
18645869 | HMC-4 | starts aggregation, computation state: aggregating, communication state: reduce-scatter
18645869 | HMC-0 | starts aggregation, computation state: aggregating, communication state: reduce-scatter
18645869 | HMC-15 | starts aggregation, computation state: aggregating, communication state: reduce-scatter
18645869 | HMC-12 | starts aggregation, computation state: aggregating, communication state: reduce-scatter
18645869 | HMC-10 | starts aggregation, computation state: aggregating, communication state: reduce-scatter
18645869 | HMC-3 | starts aggregation, computation state: aggregating, communication state: reduce-scatter
18671773 | HMC-14 | clear pending aggregation for flow 12 from child HMC-10
18671773 | HMC-14 | finishes aggregation , computation state: idle, communication state: reduce-scatter
18671773 | HMC-15 | clear pending aggregation for flow 13 from child HMC-14
18671773 | HMC-15 | finishes aggregation , computation state: idle, communication state: reduce-scatter
18671773 | HMC-9 | clear pending aggregation for flow 1 from child HMC-13
18671773 | HMC-9 | finishes aggregation , computation state: idle, communication state: reduce-scatter
18671773 | HMC-12 | clear pending aggregation for flow 3 from child HMC-8
18671773 | HMC-12 | finishes aggregation , computation state: idle, communication state: reduce-scatter
18671773 | HMC-8 | clear pending aggregation for flow 7 from child HMC-4
18671773 | HMC-8 | finishes aggregation , computation state: idle, communication state: reduce-scatter
18671773 | HMC-1 | clear pending aggregation for flow 14 from child HMC-2
18671773 | HMC-1 | finishes aggregation , computation state: idle, communication state: reduce-scatter
18671773 | HMC-13 | clear pending aggregation for flow 2 from child HMC-12
18671773 | HMC-13 | finishes aggregation , computation state: idle, communication state: reduce-scatter
18671773 | HMC-7 | clear pending aggregation for flow 5 from child HMC-11
18671773 | HMC-7 | finishes aggregation , computation state: idle, communication state: reduce-scatter
18671773 | HMC-11 | clear pending aggregation for flow 9 from child HMC-15
18671773 | HMC-11 | finishes aggregation , computation state: idle, communication state: reduce-scatter
18671773 | HMC-3 | clear pending aggregation for flow 6 from child HMC-7
18671773 | HMC-3 | finishes aggregation , computation state: idle, communication state: reduce-scatter
18671773 | HMC-0 | clear pending aggregation for flow 15 from child HMC-1
18671773 | HMC-0 | finishes aggregation , computation state: idle, communication state: reduce-scatter
18671773 | HMC-10 | clear pending aggregation for flow 8 from child HMC-6
18671773 | HMC-10 | finishes aggregation , computation state: idle, communication state: reduce-scatter
18671773 | HMC-5 | clear pending aggregation for flow 0 from child HMC-9
18671773 | HMC-5 | finishes aggregation , computation state: idle, communication state: reduce-scatter
18671773 | HMC-6 | clear pending aggregation for flow 4 from child HMC-5
18671773 | HMC-6 | finishes aggregation , computation state: idle, communication state: reduce-scatter
18671773 | HMC-2 | clear pending aggregation for flow 10 from child HMC-3
18671773 | HMC-2 | finishes aggregation , computation state: idle, communication state: reduce-scatter
18671773 | HMC-4 | clear pending aggregation for flow 11 from child HMC-0
18671773 | HMC-4 | finishes aggregation , computation state: idle, communication state: reduce-scatter
18671774 | HMC-14 | start reducing for flow 12 (from NI 0) to parent HMC-15 (to NI 0) at timestep 5
18671774 | HMC-5 | start reducing for flow 0 (from NI 0) to parent HMC-6 (to NI 0) at timestep 5
18671774 | HMC-9 | start reducing for flow 1 (from NI 0) to parent HMC-5 (to NI 0) at timestep 5
18671774 | HMC-6 | start reducing for flow 4 (from NI 0) to parent HMC-10 (to NI 0) at timestep 5
18671774 | HMC-8 | start reducing for flow 7 (from NI 0) to parent HMC-12 (to NI 0) at timestep 5
18671774 | HMC-1 | start reducing for flow 14 (from NI 0) to parent HMC-0 (to NI 0) at timestep 5
18671774 | HMC-13 | start reducing for flow 2 (from NI 0) to parent HMC-9 (to NI 0) at timestep 5
18671774 | HMC-7 | start reducing for flow 5 (from NI 0) to parent HMC-3 (to NI 0) at timestep 5
18671774 | HMC-11 | start reducing for flow 9 (from NI 0) to parent HMC-7 (to NI 0) at timestep 5
18671774 | HMC-4 | start reducing for flow 11 (from NI 0) to parent HMC-8 (to NI 0) at timestep 5
18671774 | HMC-0 | start reducing for flow 15 (from NI 0) to parent HMC-4 (to NI 0) at timestep 5
18671774 | HMC-10 | start reducing for flow 8 (from NI 0) to parent HMC-14 (to NI 0) at timestep 5
18671774 | HMC-15 | start reducing for flow 13 (from NI 0) to parent HMC-11 (to NI 0) at timestep 5
18671774 | HMC-12 | start reducing for flow 3 (from NI 0) to parent HMC-13 (to NI 0) at timestep 5
18671774 | HMC-2 | start reducing for flow 10 (from NI 0) to parent HMC-1 (to NI 0) at timestep 5
18671774 | HMC-3 | start reducing for flow 6 (from NI 0) to parent HMC-2 (to NI 0) at timestep 5
18891014 | HMC-15 | finishes reducing for flow 13 (from NI 0) to parent HMC-11 (to NI 0) at timestep 5
18891014 | HMC-12 | finishes reducing for flow 3 (from NI 0) to parent HMC-13 (to NI 0) at timestep 5
18891014 | HMC-2 | finishes reducing for flow 10 (from NI 0) to parent HMC-1 (to NI 0) at timestep 5
18891014 | HMC-3 | finishes reducing for flow 6 (from NI 0) to parent HMC-2 (to NI 0) at timestep 5
18891014 | HMC-10 | finishes reducing for flow 8 (from NI 0) to parent HMC-14 (to NI 0) at timestep 5
18891015 | HMC-14 | finishes reducing for flow 12 (from NI 0) to parent HMC-15 (to NI 0) at timestep 5
18891015 | HMC-9 | finishes reducing for flow 1 (from NI 0) to parent HMC-5 (to NI 0) at timestep 5
18891015 | HMC-8 | finishes reducing for flow 7 (from NI 0) to parent HMC-12 (to NI 0) at timestep 5
18891015 | HMC-1 | finishes reducing for flow 14 (from NI 0) to parent HMC-0 (to NI 0) at timestep 5
18891015 | HMC-13 | finishes reducing for flow 2 (from NI 0) to parent HMC-9 (to NI 0) at timestep 5
18891015 | HMC-7 | finishes reducing for flow 5 (from NI 0) to parent HMC-3 (to NI 0) at timestep 5
18891015 | HMC-11 | finishes reducing for flow 9 (from NI 0) to parent HMC-7 (to NI 0) at timestep 5
18891015 | HMC-0 | finishes reducing for flow 15 (from NI 0) to parent HMC-4 (to NI 0) at timestep 5
18891015 | HMC-5 | finishes reducing for flow 0 (from NI 0) to parent HMC-6 (to NI 0) at timestep 5
18891015 | HMC-6 | finishes reducing for flow 4 (from NI 0) to parent HMC-10 (to NI 0) at timestep 5
18891015 | HMC-4 | finishes reducing for flow 11 (from NI 0) to parent HMC-8 (to NI 0) at timestep 5
18892068 | HMC-14 | receives full reduce for flow 8 from child HMC-10
18892068 | HMC-15 | receives full reduce for flow 12 from child HMC-14
18892068 | HMC-9 | receives full reduce for flow 2 from child HMC-13
18892068 | HMC-12 | receives full reduce for flow 7 from child HMC-8
18892068 | HMC-8 | receives full reduce for flow 11 from child HMC-4
18892068 | HMC-1 | receives full reduce for flow 10 from child HMC-2
18892068 | HMC-13 | receives full reduce for flow 3 from child HMC-12
18892068 | HMC-7 | receives full reduce for flow 9 from child HMC-11
18892068 | HMC-11 | receives full reduce for flow 13 from child HMC-15
18892068 | HMC-3 | receives full reduce for flow 5 from child HMC-7
18892068 | HMC-0 | receives full reduce for flow 14 from child HMC-1
18892068 | HMC-10 | receives full reduce for flow 4 from child HMC-6
18892068 | HMC-5 | receives full reduce for flow 1 from child HMC-9
18892068 | HMC-6 | receives full reduce for flow 0 from child HMC-5
18892068 | HMC-2 | receives full reduce for flow 6 from child HMC-3
18892068 | HMC-4 | receives full reduce for flow 15 from child HMC-0
18892069 | HMC-14 | starts aggregation, computation state: aggregating, communication state: reduce-scatter
18892069 | HMC-5 | starts aggregation, computation state: aggregating, communication state: reduce-scatter
18892069 | HMC-9 | starts aggregation, computation state: aggregating, communication state: reduce-scatter
18892069 | HMC-6 | starts aggregation, computation state: aggregating, communication state: reduce-scatter
18892069 | HMC-8 | starts aggregation, computation state: aggregating, communication state: reduce-scatter
18892069 | HMC-1 | starts aggregation, computation state: aggregating, communication state: reduce-scatter
18892069 | HMC-13 | starts aggregation, computation state: aggregating, communication state: reduce-scatter
18892069 | HMC-2 | starts aggregation, computation state: aggregating, communication state: reduce-scatter
[...]
23557019 | HMC-10 | receives full gather for flow 12 from parent HMC-14
23557019 | HMC-5 | receives full gather for flow 4 from parent HMC-6
23557019 | HMC-6 | receives full gather for flow 8 from parent HMC-10
23557019 | HMC-2 | receives full gather for flow 14 from parent HMC-1
23557019 | HMC-4 | receives full gather for flow 7 from parent HMC-8
23557020 | HMC-14 | start gathering for flow 13 (from NI 0) to child HMC-10 (to NI 0) at timestep 27
23557020 | HMC-5 | start gathering for flow 4 (from NI 0) to child HMC-9 (to NI 0) at timestep 27
23557020 | HMC-9 | start gathering for flow 0 (from NI 0) to child HMC-13 (to NI 0) at timestep 27
23557020 | HMC-6 | start gathering for flow 8 (from NI 0) to child HMC-5 (to NI 0) at timestep 27
23557020 | HMC-8 | start gathering for flow 3 (from NI 0) to child HMC-4 (to NI 0) at timestep 27
23557020 | HMC-1 | start gathering for flow 15 (from NI 0) to child HMC-2 (to NI 0) at timestep 27
23557020 | HMC-13 | start gathering for flow 1 (from NI 0) to child HMC-12 (to NI 0) at timestep 27
23557020 | HMC-2 | start gathering for flow 14 (from NI 0) to child HMC-3 (to NI 0) at timestep 27
23557020 | HMC-7 | start gathering for flow 6 (from NI 0) to child HMC-11 (to NI 0) at timestep 27
23557020 | HMC-11 | start gathering for flow 5 (from NI 0) to child HMC-15 (to NI 0) at timestep 27
23557020 | HMC-4 | start gathering for flow 7 (from NI 0) to child HMC-0 (to NI 0) at timestep 27
23557020 | HMC-0 | start gathering for flow 11 (from NI 0) to child HMC-1 (to NI 0) at timestep 27
23557020 | HMC-15 | start gathering for flow 9 (from NI 0) to child HMC-14 (to NI 0) at timestep 27
23557020 | HMC-12 | start gathering for flow 2 (from NI 0) to child HMC-8 (to NI 0) at timestep 27
23557020 | HMC-10 | start gathering for flow 12 (from NI 0) to child HMC-6 (to NI 0) at timestep 27
23557020 | HMC-3 | start gathering for flow 10 (from NI 0) to child HMC-7 (to NI 0) at timestep 27
23776260 | HMC-15 | finishes gather for flow 9 (from NI 0) to child HMC-14 (to NI 0) at timestep 27
23776260 | HMC-12 | finishes gather for flow 2 (from NI 0) to child HMC-8 (to NI 0) at timestep 27
23776260 | HMC-2 | finishes gather for flow 14 (from NI 0) to child HMC-3 (to NI 0) at timestep 27
23776260 | HMC-3 | finishes gather for flow 10 (from NI 0) to child HMC-7 (to NI 0) at timestep 27
23776260 | HMC-10 | finishes gather for flow 12 (from NI 0) to child HMC-6 (to NI 0) at timestep 27
23776261 | HMC-14 | finishes gather for flow 13 (from NI 0) to child HMC-10 (to NI 0) at timestep 27
23776261 | HMC-9 | finishes gather for flow 0 (from NI 0) to child HMC-13 (to NI 0) at timestep 27
23776261 | HMC-8 | finishes gather for flow 3 (from NI 0) to child HMC-4 (to NI 0) at timestep 27
23776261 | HMC-1 | finishes gather for flow 15 (from NI 0) to child HMC-2 (to NI 0) at timestep 27
23776261 | HMC-13 | finishes gather for flow 1 (from NI 0) to child HMC-12 (to NI 0) at timestep 27
23776261 | HMC-7 | finishes gather for flow 6 (from NI 0) to child HMC-11 (to NI 0) at timestep 27
23776261 | HMC-11 | finishes gather for flow 5 (from NI 0) to child HMC-15 (to NI 0) at timestep 27
23776261 | HMC-0 | finishes gather for flow 11 (from NI 0) to child HMC-1 (to NI 0) at timestep 27
23776261 | HMC-5 | finishes gather for flow 4 (from NI 0) to child HMC-9 (to NI 0) at timestep 27
23776261 | HMC-6 | finishes gather for flow 8 (from NI 0) to child HMC-5 (to NI 0) at timestep 27
23776261 | HMC-4 | finishes gather for flow 7 (from NI 0) to child HMC-0 (to NI 0) at timestep 27
23777314 | HMC-14 | receives full gather for flow 9 from parent HMC-15
23777314 | HMC-15 | receives full gather for flow 5 from parent HMC-11
23777314 | HMC-9 | receives full gather for flow 4 from parent HMC-5
23777314 | HMC-12 | receives full gather for flow 1 from parent HMC-13
23777314 | HMC-8 | receives full gather for flow 2 from parent HMC-12
23777314 | HMC-1 | receives full gather for flow 11 from parent HMC-0
23777314 | HMC-13 | receives full gather for flow 0 from parent HMC-9
23777314 | HMC-7 | receives full gather for flow 10 from parent HMC-3
23777314 | HMC-11 | receives full gather for flow 6 from parent HMC-7
23777314 | HMC-3 | receives full gather for flow 14 from parent HMC-2
23777314 | HMC-0 | receives full gather for flow 7 from parent HMC-4
23777314 | HMC-10 | receives full gather for flow 13 from parent HMC-14
23777314 | HMC-5 | receives full gather for flow 8 from parent HMC-6
23777314 | HMC-6 | receives full gather for flow 12 from parent HMC-10
23777314 | HMC-2 | receives full gather for flow 15 from parent HMC-1
23777314 | HMC-4 | receives full gather for flow 3 from parent HMC-8
23777315 | HMC-14 | start gathering for flow 9 (from NI 0) to child HMC-10 (to NI 0) at timestep 28
23777315 | HMC-5 | start gathering for flow 8 (from NI 0) to child HMC-9 (to NI 0) at timestep 28
23777315 | HMC-9 | start gathering for flow 4 (from NI 0) to child HMC-13 (to NI 0) at timestep 28
23777315 | HMC-6 | start gathering for flow 12 (from NI 0) to child HMC-5 (to NI 0) at timestep 28
23777315 | HMC-8 | start gathering for flow 2 (from NI 0) to child HMC-4 (to NI 0) at timestep 28
23777315 | HMC-1 | start gathering for flow 11 (from NI 0) to child HMC-2 (to NI 0) at timestep 28
23777315 | HMC-13 | start gathering for flow 0 (from NI 0) to child HMC-12 (to NI 0) at timestep 28
23777315 | HMC-2 | start gathering for flow 15 (from NI 0) to child HMC-3 (to NI 0) at timestep 28
23777315 | HMC-7 | start gathering for flow 10 (from NI 0) to child HMC-11 (to NI 0) at timestep 28
23777315 | HMC-11 | start gathering for flow 6 (from NI 0) to child HMC-15 (to NI 0) at timestep 28
23777315 | HMC-4 | start gathering for flow 3 (from NI 0) to child HMC-0 (to NI 0) at timestep 28
23777315 | HMC-0 | start gathering for flow 7 (from NI 0) to child HMC-1 (to NI 0) at timestep 28
23777315 | HMC-15 | start gathering for flow 5 (from NI 0) to child HMC-14 (to NI 0) at timestep 28
23777315 | HMC-12 | start gathering for flow 1 (from NI 0) to child HMC-8 (to NI 0) at timestep 28
23777315 | HMC-10 | start gathering for flow 13 (from NI 0) to child HMC-6 (to NI 0) at timestep 28
23777315 | HMC-3 | start gathering for flow 14 (from NI 0) to child HMC-7 (to NI 0) at timestep 28
23996555 | HMC-15 | finishes gather for flow 5 (from NI 0) to child HMC-14 (to NI 0) at timestep 28
23996555 | HMC-12 | finishes gather for flow 1 (from NI 0) to child HMC-8 (to NI 0) at timestep 28
23996555 | HMC-2 | finishes gather for flow 15 (from NI 0) to child HMC-3 (to NI 0) at timestep 28
23996555 | HMC-3 | finishes gather for flow 14 (from NI 0) to child HMC-7 (to NI 0) at timestep 28
23996555 | HMC-10 | finishes gather for flow 13 (from NI 0) to child HMC-6 (to NI 0) at timestep 28
23996556 | HMC-14 | finishes gather for flow 9 (from NI 0) to child HMC-10 (to NI 0) at timestep 28
23996556 | HMC-9 | finishes gather for flow 4 (from NI 0) to child HMC-13 (to NI 0) at timestep 28
23996556 | HMC-8 | finishes gather for flow 2 (from NI 0) to child HMC-4 (to NI 0) at timestep 28
23996556 | HMC-1 | finishes gather for flow 11 (from NI 0) to child HMC-2 (to NI 0) at timestep 28
23996556 | HMC-13 | finishes gather for flow 0 (from NI 0) to child HMC-12 (to NI 0) at timestep 28
23996556 | HMC-7 | finishes gather for flow 10 (from NI 0) to child HMC-11 (to NI 0) at timestep 28
23996556 | HMC-11 | finishes gather for flow 6 (from NI 0) to child HMC-15 (to NI 0) at timestep 28
23996556 | HMC-0 | finishes gather for flow 7 (from NI 0) to child HMC-1 (to NI 0) at timestep 28
23996556 | HMC-5 | finishes gather for flow 8 (from NI 0) to child HMC-9 (to NI 0) at timestep 28
23996556 | HMC-6 | finishes gather for flow 12 (from NI 0) to child HMC-5 (to NI 0) at timestep 28
23996556 | HMC-4 | finishes gather for flow 3 (from NI 0) to child HMC-0 (to NI 0) at timestep 28
23997609 | HMC-14 | receives full gather for flow 5 from parent HMC-15
23997609 | HMC-15 | receives full gather for flow 6 from parent HMC-11
23997609 | HMC-9 | receives full gather for flow 8 from parent HMC-5
23997609 | HMC-12 | receives full gather for flow 0 from parent HMC-13
23997609 | HMC-8 | receives full gather for flow 1 from parent HMC-12
23997609 | HMC-1 | receives full gather for flow 7 from parent HMC-0
23997609 | HMC-13 | receives full gather for flow 4 from parent HMC-9
23997609 | HMC-7 | receives full gather for flow 14 from parent HMC-3
23997609 | HMC-11 | receives full gather for flow 10 from parent HMC-7
23997609 | HMC-3 | receives full gather for flow 15 from parent HMC-2
23997609 | HMC-0 | receives full gather for flow 3 from parent HMC-4
23997609 | HMC-10 | receives full gather for flow 9 from parent HMC-14
23997609 | HMC-5 | receives full gather for flow 12 from parent HMC-6
23997609 | HMC-6 | receives full gather for flow 13 from parent HMC-10
23997609 | HMC-2 | receives full gather for flow 11 from parent HMC-1
23997609 | HMC-4 | receives full gather for flow 2 from parent HMC-8
23997610 | HMC-14 | start gathering for flow 5 (from NI 0) to child HMC-10 (to NI 0) at timestep 29
23997610 | HMC-5 | start gathering for flow 12 (from NI 0) to child HMC-9 (to NI 0) at timestep 29
23997610 | HMC-9 | start gathering for flow 8 (from NI 0) to child HMC-13 (to NI 0) at timestep 29
23997610 | HMC-6 | start gathering for flow 13 (from NI 0) to child HMC-5 (to NI 0) at timestep 29
23997610 | HMC-8 | start gathering for flow 1 (from NI 0) to child HMC-4 (to NI 0) at timestep 29
23997610 | HMC-1 | start gathering for flow 7 (from NI 0) to child HMC-2 (to NI 0) at timestep 29
23997610 | HMC-13 | start gathering for flow 4 (from NI 0) to child HMC-12 (to NI 0) at timestep 29
23997610 | HMC-2 | start gathering for flow 11 (from NI 0) to child HMC-3 (to NI 0) at timestep 29
23997610 | HMC-7 | start gathering for flow 14 (from NI 0) to child HMC-11 (to NI 0) at timestep 29
23997610 | HMC-11 | start gathering for flow 10 (from NI 0) to child HMC-15 (to NI 0) at timestep 29
23997610 | HMC-4 | start gathering for flow 2 (from NI 0) to child HMC-0 (to NI 0) at timestep 29
23997610 | HMC-0 | start gathering for flow 3 (from NI 0) to child HMC-1 (to NI 0) at timestep 29
23997610 | HMC-15 | start gathering for flow 6 (from NI 0) to child HMC-14 (to NI 0) at timestep 29
23997610 | HMC-12 | start gathering for flow 0 (from NI 0) to child HMC-8 (to NI 0) at timestep 29
23997610 | HMC-10 | start gathering for flow 9 (from NI 0) to child HMC-6 (to NI 0) at timestep 29
23997610 | HMC-3 | start gathering for flow 15 (from NI 0) to child HMC-7 (to NI 0) at timestep 29
24216850 | HMC-15 | finishes gather for flow 6 (from NI 0) to child HMC-14 (to NI 0) at timestep 29
24216850 | HMC-12 | finishes gather for flow 0 (from NI 0) to child HMC-8 (to NI 0) at timestep 29
24216850 | HMC-2 | finishes gather for flow 11 (from NI 0) to child HMC-3 (to NI 0) at timestep 29
24216850 | HMC-3 | finishes gather for flow 15 (from NI 0) to child HMC-7 (to NI 0) at timestep 29
24216850 | HMC-10 | finishes gather for flow 9 (from NI 0) to child HMC-6 (to NI 0) at timestep 29
24216851 | HMC-14 | finishes gather for flow 5 (from NI 0) to child HMC-10 (to NI 0) at timestep 29
24216851 | HMC-9 | finishes gather for flow 8 (from NI 0) to child HMC-13 (to NI 0) at timestep 29
24216851 | HMC-8 | finishes gather for flow 1 (from NI 0) to child HMC-4 (to NI 0) at timestep 29
24216851 | HMC-1 | finishes gather for flow 7 (from NI 0) to child HMC-2 (to NI 0) at timestep 29
24216851 | HMC-13 | finishes gather for flow 4 (from NI 0) to child HMC-12 (to NI 0) at timestep 29
24216851 | HMC-7 | finishes gather for flow 14 (from NI 0) to child HMC-11 (to NI 0) at timestep 29
24216851 | HMC-11 | finishes gather for flow 10 (from NI 0) to child HMC-15 (to NI 0) at timestep 29
24216851 | HMC-0 | finishes gather for flow 3 (from NI 0) to child HMC-1 (to NI 0) at timestep 29
24216851 | HMC-5 | finishes gather for flow 12 (from NI 0) to child HMC-9 (to NI 0) at timestep 29
24216851 | HMC-6 | finishes gather for flow 13 (from NI 0) to child HMC-5 (to NI 0) at timestep 29
24216851 | HMC-4 | finishes gather for flow 2 (from NI 0) to child HMC-0 (to NI 0) at timestep 29
24217904 | HMC-14 | receives full gather for flow 6 from parent HMC-15
24217904 | HMC-15 | receives full gather for flow 10 from parent HMC-11
24217904 | HMC-9 | receives full gather for flow 12 from parent HMC-5
24217904 | HMC-12 | receives full gather for flow 4 from parent HMC-13
24217904 | HMC-8 | receives full gather for flow 0 from parent HMC-12
24217904 | HMC-1 | receives full gather for flow 3 from parent HMC-0
24217904 | HMC-13 | receives full gather for flow 8 from parent HMC-9
24217904 | HMC-7 | receives full gather for flow 15 from parent HMC-3
24217904 | HMC-11 | receives full gather for flow 14 from parent HMC-7
24217904 | HMC-3 | receives full gather for flow 11 from parent HMC-2
24217904 | HMC-0 | receives full gather for flow 2 from parent HMC-4
24217904 | HMC-10 | receives full gather for flow 5 from parent HMC-14
24217904 | HMC-5 | receives full gather for flow 13 from parent HMC-6
24217904 | HMC-6 | receives full gather for flow 9 from parent HMC-10
24217904 | HMC-2 | receives full gather for flow 7 from parent HMC-1
24217904 | HMC-4 | receives full gather for flow 1 from parent HMC-8
24217905 | HMC-14 | start gathering for flow 6 (from NI 0) to child HMC-10 (to NI 0) at timestep 30
24217905 | HMC-5 | start gathering for flow 13 (from NI 0) to child HMC-9 (to NI 0) at timestep 30
24217905 | HMC-9 | start gathering for flow 12 (from NI 0) to child HMC-13 (to NI 0) at timestep 30
24217905 | HMC-6 | start gathering for flow 9 (from NI 0) to child HMC-5 (to NI 0) at timestep 30
24217905 | HMC-8 | start gathering for flow 0 (from NI 0) to child HMC-4 (to NI 0) at timestep 30
24217905 | HMC-1 | start gathering for flow 3 (from NI 0) to child HMC-2 (to NI 0) at timestep 30
24217905 | HMC-13 | start gathering for flow 8 (from NI 0) to child HMC-12 (to NI 0) at timestep 30
24217905 | HMC-2 | start gathering for flow 7 (from NI 0) to child HMC-3 (to NI 0) at timestep 30
24217905 | HMC-7 | start gathering for flow 15 (from NI 0) to child HMC-11 (to NI 0) at timestep 30
24217905 | HMC-11 | start gathering for flow 14 (from NI 0) to child HMC-15 (to NI 0) at timestep 30
24217905 | HMC-4 | start gathering for flow 1 (from NI 0) to child HMC-0 (to NI 0) at timestep 30
24217905 | HMC-0 | start gathering for flow 2 (from NI 0) to child HMC-1 (to NI 0) at timestep 30
24217905 | HMC-15 | start gathering for flow 10 (from NI 0) to child HMC-14 (to NI 0) at timestep 30
24217905 | HMC-12 | start gathering for flow 4 (from NI 0) to child HMC-8 (to NI 0) at timestep 30
24217905 | HMC-10 | start gathering for flow 5 (from NI 0) to child HMC-6 (to NI 0) at timestep 30
24217905 | HMC-3 | start gathering for flow 11 (from NI 0) to child HMC-7 (to NI 0) at timestep 30
24437145 | HMC-15 | finishes gather for flow 10 (from NI 0) to child HMC-14 (to NI 0) at timestep 30
24437145 | HMC-15 | finishes all-gather (after send-gather-message)
24437145 | HMC-12 | finishes gather for flow 4 (from NI 0) to child HMC-8 (to NI 0) at timestep 30
24437145 | HMC-12 | finishes all-gather (after send-gather-message)
24437145 | HMC-2 | finishes gather for flow 7 (from NI 0) to child HMC-3 (to NI 0) at timestep 30
24437145 | HMC-2 | finishes all-gather (after send-gather-message)
24437145 | HMC-3 | finishes gather for flow 11 (from NI 0) to child HMC-7 (to NI 0) at timestep 30
24437145 | HMC-3 | finishes all-gather (after send-gather-message)
24437145 | HMC-10 | finishes gather for flow 5 (from NI 0) to child HMC-6 (to NI 0) at timestep 30
24437145 | HMC-10 | finishes all-gather (after send-gather-message)
24437146 | HMC-14 | finishes gather for flow 6 (from NI 0) to child HMC-10 (to NI 0) at timestep 30
24437146 | HMC-14 | finishes all-gather (after send-gather-message)
24437146 | HMC-9 | finishes gather for flow 12 (from NI 0) to child HMC-13 (to NI 0) at timestep 30
24437146 | HMC-9 | finishes all-gather (after send-gather-message)
24437146 | HMC-8 | finishes gather for flow 0 (from NI 0) to child HMC-4 (to NI 0) at timestep 30
24437146 | HMC-8 | finishes all-gather (after send-gather-message)
24437146 | HMC-1 | finishes gather for flow 3 (from NI 0) to child HMC-2 (to NI 0) at timestep 30
24437146 | HMC-1 | finishes all-gather (after send-gather-message)
24437146 | HMC-13 | finishes gather for flow 8 (from NI 0) to child HMC-12 (to NI 0) at timestep 30
24437146 | HMC-13 | finishes all-gather (after send-gather-message)
24437146 | HMC-7 | finishes gather for flow 15 (from NI 0) to child HMC-11 (to NI 0) at timestep 30
24437146 | HMC-7 | finishes all-gather (after send-gather-message)
24437146 | HMC-11 | finishes gather for flow 14 (from NI 0) to child HMC-15 (to NI 0) at timestep 30
24437146 | HMC-11 | finishes all-gather (after send-gather-message)
24437146 | HMC-0 | finishes gather for flow 2 (from NI 0) to child HMC-1 (to NI 0) at timestep 30
24437146 | HMC-0 | finishes all-gather (after send-gather-message)
24437146 | HMC-5 | finishes gather for flow 13 (from NI 0) to child HMC-9 (to NI 0) at timestep 30
24437146 | HMC-5 | finishes all-gather (after send-gather-message)
24437146 | HMC-6 | finishes gather for flow 9 (from NI 0) to child HMC-5 (to NI 0) at timestep 30
24437146 | HMC-6 | finishes all-gather (after send-gather-message)
24437146 | HMC-4 | finishes gather for flow 1 (from NI 0) to child HMC-0 (to NI 0) at timestep 30
24437146 | HMC-4 | finishes all-gather (after send-gather-message)
24438199 | HMC-14 | receives full gather for flow 10 from parent HMC-15
24438199 | HMC-14 | finishes all-gather (after recieving all-gather)
24438199 | HMC-15 | receives full gather for flow 14 from parent HMC-11
24438199 | HMC-15 | finishes all-gather (after recieving all-gather)
24438199 | HMC-9 | receives full gather for flow 13 from parent HMC-5
24438199 | HMC-9 | finishes all-gather (after recieving all-gather)
24438199 | HMC-12 | receives full gather for flow 8 from parent HMC-13
24438199 | HMC-12 | finishes all-gather (after recieving all-gather)
24438199 | HMC-8 | receives full gather for flow 4 from parent HMC-12
24438199 | HMC-8 | finishes all-gather (after recieving all-gather)
24438199 | HMC-1 | receives full gather for flow 2 from parent HMC-0
24438199 | HMC-1 | finishes all-gather (after recieving all-gather)
24438199 | HMC-13 | receives full gather for flow 12 from parent HMC-9
24438199 | HMC-13 | finishes all-gather (after recieving all-gather)
24438199 | HMC-7 | receives full gather for flow 11 from parent HMC-3
24438199 | HMC-7 | finishes all-gather (after recieving all-gather)
24438199 | HMC-11 | receives full gather for flow 15 from parent HMC-7
24438199 | HMC-11 | finishes all-gather (after recieving all-gather)
24438199 | HMC-3 | receives full gather for flow 7 from parent HMC-2
24438199 | HMC-3 | finishes all-gather (after recieving all-gather)
24438199 | HMC-0 | receives full gather for flow 1 from parent HMC-4
24438199 | HMC-0 | finishes all-gather (after recieving all-gather)
24438199 | HMC-10 | receives full gather for flow 6 from parent HMC-14
24438199 | HMC-10 | finishes all-gather (after recieving all-gather)
24438199 | HMC-5 | receives full gather for flow 9 from parent HMC-6
24438199 | HMC-5 | finishes all-gather (after recieving all-gather)
24438199 | HMC-6 | receives full gather for flow 5 from parent HMC-10
24438199 | HMC-6 | finishes all-gather (after recieving all-gather)
24438199 | HMC-2 | receives full gather for flow 3 from parent HMC-1
24438199 | HMC-2 | finishes all-gather (after recieving all-gather)
24438199 | HMC-4 | receives full gather for flow 0 from parent HMC-8
24438199 | HMC-4 | finishes all-gather (after recieving all-gather)

======== Simulation Summary ========
Training epoch runtime: 24438348 cycles
 - computation: 17440772 cycles (71.37%)
 - allreduce: 6997576 cycles (28.63%)
     - overlapped computation: 388560 cycles (1.59%)
     - pure communication: 6609016 cycles (27.04%)
Total number of messages: 6215520

