====================================================
******************* SCALE SIM **********************
====================================================
Array Size:    32 x 32
SRAM IFMAP:    524288
SRAM Filter:   524288
SRAM OFMAP:    262144
CSV file path: /home/farabi/study/research/multitree-sim/src/SCALE-Sim/topologies/conv_nets/Googlenet.csv
Dataflow:      os
====================================================


Model loading ...
Model loading finished

NN model size: 6854208 parameters

Start a training epoch ...

Feed-Forward ...

Commencing run for Conv1
Average utilization : 98.97567067309872 %
Cycles for compute  : 110281 cycles

Commencing run for Conv2red
Average utilization : 99.66873757455268 %
Cycles for compute  : 12576 cycles

Commencing run for Conv2
Average utilization : 99.03757814391807 %
Cycles for compute  : 317983 cycles

Commencing run for Inc3a_1x1
Average utilization : 97.62234256567335 %
Cycles for compute  : 9632 cycles

Commencing run for Inc3a_3x3red
Average utilization : 97.74795795509667 %
Cycles for compute  : 14431 cycles

Commencing run for Inc3a_3x3
Average utilization : 95.97657482530929 %
Cycles for compute  : 76063 cycles

Commencing run for Inc3a_5x5red
Average utilization : 48.819768951194185 %
Cycles for compute  : 4831 cycles

Commencing run for Inc3a_5x5
Average utilization : 99.42392131102199 %
Cycles for compute  : 7263 cycles

Commencing run for Inc3a_pp
Average utilization : 97.2471085179052 %
Cycles for compute  : 4847 cycles

Commencing run for Inc3b_1x1
Average utilization : 97.85809298310639 %
Cycles for compute  : 25631 cycles

Commencing run for Inc3b_3x3red
Average utilization : 97.85809298310639 %
Cycles for compute  : 25631 cycles

Commencing run for Inc3b_3x3
Average utilization : 95.9996463456228 %
Cycles for compute  : 152095 cycles

Commencing run for Inc3b_5x5red
Average utilization : 97.43442407868139 %
Cycles for compute  : 6447 cycles

Commencing run for Inc3b_5x5
Average utilization : 99.90364264069764 %
Cycles for compute  : 43231 cycles

Commencing run for Inc3b_pp
Average utilization : 97.71652881692775 %
Cycles for compute  : 12832 cycles

Commencing run for Inc4a_1x1
Average utilization : 87.33922098645436 %
Cycles for compute  : 20191 cycles

Commencing run for Inc4a_3x3red
Average utilization : 87.1789349161804 %
Cycles for compute  : 10111 cycles

Commencing run for Inc4a_3x3
Average utilization : 83.5256052718559 %
Cycles for compute  : 30255 cycles

Commencing run for Inc4a_5x5red
Average utilization : 43.53559027777778 %
Cycles for compute  : 3379 cycles

Commencing run for Inc4a_5x5
Average utilization : 58.299414366251945 %
Cycles for compute  : 3216 cycles

Commencing run for Inc4a_pp
Average utilization : 87.01913952562583 %
Cycles for compute  : 6752 cycles

Commencing run for Inc4b_1x1
Average utilization : 87.31915831638905 %
Cycles for compute  : 17951 cycles

Commencing run for Inc4b_3x3red
Average utilization : 76.47777974966901 %
Cycles for compute  : 14351 cycles

Commencing run for Inc4b_3x3
Average utilization : 89.90401804678429 %
Cycles for compute  : 35311 cycles

Commencing run for Inc4b_5x5red
Average utilization : 65.14400168075963 %
Cycles for compute  : 3611 cycles

Commencing run for Inc4b_5x5
Average utilization : 77.51318793986752 %
Cycles for compute  : 4832 cycles

Commencing run for Inc4b_pp
Average utilization : 87.04906388908181 %
Cycles for compute  : 7200 cycles

Commencing run for Inc4c_1x1
Average utilization : 87.27404544703138 %
Cycles for compute  : 14367 cycles

Commencing run for Inc4c_3x3red
Average utilization : 87.27404544703138 %
Cycles for compute  : 14367 cycles

Commencing run for Inc4c_3x3
Average utilization : 89.92649869337035 %
Cycles for compute  : 46111 cycles

Commencing run for Inc4c_5x5red
Average utilization : 65.14400168075963 %
Cycles for compute  : 3611 cycles

Commencing run for Inc4c_5x5
Average utilization : 78.6321738760218 %
Cycles for compute  : 464 cycles

Commencing run for Inc4c_pp
Average utilization : 87.04906388908181 %
Cycles for compute  : 7200 cycles

Commencing run for Inc4d_1x1
Average utilization : 76.47777974966901 %
Cycles for compute  : 14351 cycles

Commencing run for Inc4d_3x3red
Average utilization : 78.68038010524114 %
Cycles for compute  : 17935 cycles

Commencing run for Inc4d_3x3
Average utilization : 89.94191669808572 %
Cycles for compute  : 58351 cycles

Commencing run for Inc4d_5x5red
Average utilization : 86.60199472683264 %
Cycles for compute  : 3619 cycles

Commencing run for Inc4d_5x5
Average utilization : 77.66540366000622 %
Cycles for compute  : 6432 cycles

Commencing run for Inc4d_pp
Average utilization : 87.04906388908181 %
Cycles for compute  : 7200 cycles

Commencing run for Inc4e_1x1
Average utilization : 87.39032436695496 %
Cycles for compute  : 29599 cycles

Commencing run for Inc4e_3x3red
Average utilization : 87.32462919007618 %
Cycles for compute  : 18511 cycles

Commencing run for Inc4e_3x3
Average utilization : 89.95294777595757 %
Cycles for compute  : 72031 cycles

Commencing run for Inc4e_5x5red
Average utilization : 86.62898066474376 %
Cycles for compute  : 3731 cycles

Commencing run for Inc4e_5x5
Average utilization : 77.89464663217987 %
Cycles for compute  : 12831 cycles

Commencing run for Inc4e_pp
Average utilization : 87.2808782273034 %
Cycles for compute  : 14815 cycles

Commencing run for Inc5a_1x1
Average utilization : 76.33871693022559 %
Cycles for compute  : 13343 cycles

Commencing run for Inc5a_3x3red
Average utilization : 76.00448514296393 %
Cycles for compute  : 5351 cycles

Commencing run for Inc5a_3x3
Average utilization : 77.90303859746379 %
Cycles for compute  : 14431 cycles

Commencing run for Inc5a_5x5red
Average utilization : 74.80088495575221 %
Cycles for compute  : 1712 cycles

Commencing run for Inc5a_5x5
Average utilization : 27.747794800371402 %
Cycles for compute  : 3231 cycles

Commencing run for Inc5a_pp
Average utilization : 76.1159712875729 %
Cycles for compute  : 6687 cycles

Commencing run for Inc5b_1x1
Average utilization : 76.41319565978299 %
Cycles for compute  : 19999 cycles

Commencing run for Inc5b_3x3red
Average utilization : 76.26435346979531 %
Cycles for compute  : 10015 cycles

Commencing run for Inc5b_3x3
Average utilization : 77.9707588963259 %
Cycles for compute  : 20767 cycles

Commencing run for Inc5b_5x5red
Average utilization : 57.10344086423444 %
Cycles for compute  : 3344 cycles

Commencing run for Inc5b_5x5
Average utilization : 27.747794800371402 %
Cycles for compute  : 3231 cycles

Commencing run for Inc5b_pp
Average utilization : 76.1159712875729 %
Cycles for compute  : 6687 cycles

Commencing run for FC6
Average utilization : 3.0510225972540046 %
Cycles for compute  : 32776 cycles

Backward Propagation ...

Commencing back-propagation run for FC6
 - compute input-gradient:
 -- input-gradient: read cycles: 32031, write cycles: 33
 - compute filter-gradient:
 -- filter-gradient: read cycles: 1055, write cycles: 32800
 - input-gradient-cycles: 32031, uitl: 3.1204633792263743 %
 - filter-gradent-cycles: 32800, uitl: 94.27391883886256 %
Average utilization : 6.027037020945415 %
Cycles for compute  : 64831 cycles


Commencing back-propagation run for Inc5b_pp
 - compute input-gradient:
 -- input-gradient: read cycles: 6687, write cycles: 1306
 - compute filter-gradient:
 -- filter-gradient: read cycles: 5127, write cycles: 5108
 - input-gradient-cycles: 6687, uitl: 76.1159712875729 %
 - filter-gradent-cycles: 5127, uitl: 99.18751219036473 %
Average utilization : 86.12848103944472 %
Cycles for compute  : 11814 cycles


Commencing back-propagation run for Inc5b_5x5
 - compute input-gradient:
 -- input-gradient: read cycles: 6431, write cycles: 105
 - compute filter-gradient:
 -- filter-gradient: read cycles: 931, write cycles: 3240
 - input-gradient-cycles: 6431, uitl: 76.09819623697715 %
 - filter-gradent-cycles: 3240, uitl: 95.52564446831364 %
Average utilization : 78.5549952458571 %
Cycles for compute  : 9671 cycles


Commencing back-propagation run for Inc5b_5x5red
 - compute input-gradient:
 -- input-gradient: read cycles: 2527, write cycles: 1306
 - compute filter-gradient:
 -- filter-gradient: read cycles: 2579, write cycles: 2594
 - input-gradient-cycles: 2527, uitl: 75.3808864265928 %
 - filter-gradent-cycles: 2594, uitl: 73.8661424001551 %
Average utilization : 74.61580126321974 %
Cycles for compute  : 5121 cycles


Commencing back-propagation run for Inc5b_3x3
 - compute input-gradient:
 -- input-gradient: read cycles: 41503, write cycles: 334
 - compute filter-gradient:
 -- filter-gradient: read cycles: 16231, write cycles: 20792
 - input-gradient-cycles: 41503, uitl: 76.49055489964582 %
 - filter-gradent-cycles: 20792, uitl: 99.74335376748198 %
Average utilization : 83.02771114074895 %
Cycles for compute  : 62295 cycles


Commencing back-propagation run for Inc5b_3x3red
 - compute input-gradient:
 -- input-gradient: read cycles: 10015, write cycles: 1306
 - compute filter-gradient:
 -- filter-gradient: read cycles: 7675, write cycles: 7622
 - input-gradient-cycles: 10015, uitl: 76.26435346979531 %
 - filter-gradent-cycles: 7675, uitl: 99.45724755700326 %
Average utilization : 86.32684426229508 %
Cycles for compute  : 17690 cycles


Commencing back-propagation run for Inc5b_1x1
 - compute input-gradient:
 -- input-gradient: read cycles: 19999, write cycles: 1306
 - compute filter-gradient:
 -- filter-gradient: read cycles: 15319, write cycles: 15164
 - input-gradient-cycles: 19999, uitl: 76.41319565978299 %
 - filter-gradent-cycles: 15319, uitl: 99.7280746132254 %
Average utilization : 86.52590393000736 %
Cycles for compute  : 35318 cycles


Commencing back-propagation run for Inc5a_pp
 - compute input-gradient:
 -- input-gradient: read cycles: 6687, write cycles: 1306
 - compute filter-gradient:
 -- filter-gradient: read cycles: 5127, write cycles: 5108
 - input-gradient-cycles: 6687, uitl: 76.1159712875729 %
 - filter-gradent-cycles: 5127, uitl: 99.18751219036473 %
Average utilization : 86.12848103944472 %
Cycles for compute  : 11814 cycles


Commencing back-propagation run for Inc5a_5x5
 - compute input-gradient:
 -- input-gradient: read cycles: 6431, write cycles: 105
 - compute filter-gradient:
 -- filter-gradient: read cycles: 931, write cycles: 3240
 - input-gradient-cycles: 6431, uitl: 76.09819623697715 %
 - filter-gradent-cycles: 3240, uitl: 95.52564446831364 %
Average utilization : 78.5549952458571 %
Cycles for compute  : 9671 cycles


Commencing back-propagation run for Inc5a_5x5red
 - compute input-gradient:
 -- input-gradient: read cycles: 1695, write cycles: 1306
 - compute filter-gradient:
 -- filter-gradient: read cycles: 1305, write cycles: 1337
 - input-gradient-cycles: 1695, uitl: 74.80088495575221 %
 - filter-gradent-cycles: 1337, uitl: 96.80795019157088 %
Average utilization : 84.37395833333333 %
Cycles for compute  : 3032 cycles


Commencing back-propagation run for Inc5a_3x3
 - compute input-gradient:
 -- input-gradient: read cycles: 28831, write cycles: 285
 - compute filter-gradient:
 -- filter-gradient: read cycles: 11281, write cycles: 14456
 - input-gradient-cycles: 28831, uitl: 76.45893309285144 %
 - filter-gradent-cycles: 14456, uitl: 99.63073973938481 %
Average utilization : 82.9757148733546 %
Cycles for compute  : 43287 cycles


Commencing back-propagation run for Inc5a_3x3red
 - compute input-gradient:
 -- input-gradient: read cycles: 5459, write cycles: 865
 - compute filter-gradient:
 -- filter-gradient: read cycles: 4184, write cycles: 4140
 - input-gradient-cycles: 5459, uitl: 74.57463449120718 %
 - filter-gradent-cycles: 4184, uitl: 97.19163591957457 %
Average utilization : 84.38792226226278 %
Cycles for compute  : 9643 cycles


Commencing back-propagation run for Inc5a_1x1
 - compute input-gradient:
 -- input-gradient: read cycles: 13343, write cycles: 1306
 - compute filter-gradient:
 -- filter-gradient: read cycles: 10223, write cycles: 10136
 - input-gradient-cycles: 13343, uitl: 76.33871693022559 %
 - filter-gradent-cycles: 10223, uitl: 99.59252421011445 %
Average utilization : 86.4262868115081 %
Cycles for compute  : 23566 cycles


Commencing back-propagation run for Inc4e_pp
 - compute input-gradient:
 -- input-gradient: read cycles: 15247, write cycles: 3364
 - compute filter-gradient:
 -- filter-gradient: read cycles: 13343, write cycles: 13330
 - input-gradient-cycles: 15247, uitl: 84.83850050419754 %
 - filter-gradent-cycles: 13343, uitl: 96.9048026118564 %
Average utilization : 90.46986353401539 %
Cycles for compute  : 28590 cycles


Commencing back-propagation run for Inc4e_5x5
 - compute input-gradient:
 -- input-gradient: read cycles: 22431, write cycles: 252
 - compute filter-gradient:
 -- filter-gradient: read cycles: 10031, write cycles: 9970
 - input-gradient-cycles: 22431, uitl: 87.35527666789264 %
 - filter-gradent-cycles: 10031, uitl: 99.58472485295584 %
Average utilization : 91.13426732602736 %
Cycles for compute  : 32462 cycles


Commencing back-propagation run for Inc4e_5x5red
 - compute input-gradient:
 -- input-gradient: read cycles: 3823, write cycles: 3364
 - compute filter-gradient:
 -- filter-gradient: read cycles: 3347, write cycles: 3379
 - input-gradient-cycles: 3823, uitl: 84.57562573567878 %
 - filter-gradent-cycles: 3379, uitl: 96.44481065132955 %
Average utilization : 90.11623409170153 %
Cycles for compute  : 7202 cycles


Commencing back-propagation run for Inc4e_3x3
 - compute input-gradient:
 -- input-gradient: read cycles: 100831, write cycles: 1028
 - compute filter-gradient:
 -- filter-gradient: read cycles: 64831, write cycles: 64584
 - input-gradient-cycles: 100831, uitl: 87.46780465271097 %
 - filter-gradent-cycles: 64831, uitl: 99.93574640218415 %
Average utilization : 92.34707166361326 %
Cycles for compute  : 165662 cycles


Commencing back-propagation run for Inc4e_3x3red
 - compute input-gradient:
 -- input-gradient: read cycles: 19055, write cycles: 3364
 - compute filter-gradient:
 -- filter-gradient: read cycles: 16675, write cycles: 16647
 - input-gradient-cycles: 19055, uitl: 84.8560806710837 %
 - filter-gradent-cycles: 16675, uitl: 96.93557908545726 %
Average utilization : 90.49351800832633 %
Cycles for compute  : 35730 cycles


Commencing back-propagation run for Inc4e_1x1
 - compute input-gradient:
 -- input-gradient: read cycles: 30479, write cycles: 3364
 - compute filter-gradient:
 -- filter-gradient: read cycles: 26671, write cycles: 26598
 - input-gradient-cycles: 30479, uitl: 84.88246389932412 %
 - filter-gradent-cycles: 26671, uitl: 96.98176975928912 %
Average utilization : 90.52901834536308 %
Cycles for compute  : 57150 cycles


Commencing back-propagation run for Inc4d_pp
 - compute input-gradient:
 -- input-gradient: read cycles: 7199, write cycles: 3168
 - compute filter-gradient:
 -- filter-gradient: read cycles: 6303, write cycles: 6304
 - input-gradient-cycles: 7199, uitl: 87.04906388908181 %
 - filter-gradent-cycles: 6304, uitl: 99.33910439473267 %
Average utilization : 92.78629728466153 %
Cycles for compute  : 13503 cycles


Commencing back-propagation run for Inc4d_5x5
 - compute input-gradient:
 -- input-gradient: read cycles: 11231, write cycles: 252
 - compute filter-gradient:
 -- filter-gradient: read cycles: 5031, write cycles: 5032
 - input-gradient-cycles: 11231, uitl: 87.2109528036239 %
 - filter-gradent-cycles: 5032, uitl: 99.17200854700855 %
Average utilization : 90.91136305113147 %
Cycles for compute  : 16263 cycles


Commencing back-propagation run for Inc4d_5x5red
 - compute input-gradient:
 -- input-gradient: read cycles: 3615, write cycles: 3168
 - compute filter-gradient:
 -- filter-gradient: read cycles: 3167, write cycles: 3199
 - input-gradient-cycles: 3615, uitl: 86.60199472683264 %
 - filter-gradent-cycles: 3199, uitl: 98.68467792863909 %
Average utilization : 92.24426215533767 %
Cycles for compute  : 6814 cycles


Commencing back-propagation run for Inc4d_3x3
 - compute input-gradient:
 -- input-gradient: read cycles: 90735, write cycles: 1028
 - compute filter-gradient:
 -- filter-gradient: read cycles: 53151, write cycles: 53063
 - input-gradient-cycles: 90735, uitl: 78.73623868614648 %
 - filter-gradent-cycles: 53151, uitl: 98.74133659291454 %
Average utilization : 86.12605394852524 %
Cycles for compute  : 143886 cycles


Commencing back-propagation run for Inc4d_3x3red
 - compute input-gradient:
 -- input-gradient: read cycles: 16159, write cycles: 3168
 - compute filter-gradient:
 -- filter-gradient: read cycles: 15711, write cycles: 15619
 - input-gradient-cycles: 16159, uitl: 87.29910334411164 %
 - filter-gradent-cycles: 15711, uitl: 89.7842773375342 %
Average utilization : 88.52422316245685 %
Cycles for compute  : 31870 cycles


Commencing back-propagation run for Inc4d_1x1
 - compute input-gradient:
 -- input-gradient: read cycles: 12575, write cycles: 3168
 - compute filter-gradient:
 -- filter-gradient: read cycles: 12575, write cycles: 12514
 - input-gradient-cycles: 12575, uitl: 87.2418458001988 %
 - filter-gradent-cycles: 12575, uitl: 87.23664264413519 %
Average utilization : 87.239244222167 %
Cycles for compute  : 25150 cycles


Commencing back-propagation run for Inc4c_pp
 - compute input-gradient:
 -- input-gradient: read cycles: 7199, write cycles: 3168
 - compute filter-gradient:
 -- filter-gradient: read cycles: 6303, write cycles: 6304
 - input-gradient-cycles: 7199, uitl: 87.04906388908181 %
 - filter-gradent-cycles: 6304, uitl: 99.33910439473267 %
Average utilization : 92.78629728466153 %
Cycles for compute  : 13503 cycles


Commencing back-propagation run for Inc4c_5x5
 - compute input-gradient:
 -- input-gradient: read cycles: 471, write cycles: 228
 - compute filter-gradient:
 -- filter-gradient: read cycles: 415, write cycles: 408
 - input-gradient-cycles: 471, uitl: 61.94143113057324 %
 - filter-gradent-cycles: 415, uitl: 69.03802710843372 %
Average utilization : 65.26545746331827 %
Cycles for compute  : 886 cycles


Commencing back-propagation run for Inc4c_5x5red
 - compute input-gradient:
 -- input-gradient: read cycles: 2719, write cycles: 3168
 - compute filter-gradient:
 -- filter-gradient: read cycles: 3167, write cycles: 3199
 - input-gradient-cycles: 2719, uitl: 86.30305546616404 %
 - filter-gradent-cycles: 3199, uitl: 74.0292962582886 %
Average utilization : 79.69908071058444 %
Cycles for compute  : 6367 cycles


Commencing back-propagation run for Inc4c_3x3
 - compute input-gradient:
 -- input-gradient: read cycles: 64543, write cycles: 830
 - compute filter-gradient:
 -- filter-gradient: read cycles: 41503, write cycles: 41318
 - input-gradient-cycles: 64543, uitl: 87.44970346803682 %
 - filter-gradent-cycles: 41503, uitl: 99.89963074958436 %
Average utilization : 92.32220532540124 %
Cycles for compute  : 106046 cycles


Commencing back-propagation run for Inc4c_3x3red
 - compute input-gradient:
 -- input-gradient: read cycles: 14367, write cycles: 3168
 - compute filter-gradient:
 -- filter-gradient: read cycles: 12575, write cycles: 12514
 - input-gradient-cycles: 14367, uitl: 87.27404544703138 %
 - filter-gradent-cycles: 12575, uitl: 99.66873757455268 %
Average utilization : 93.05918587846114 %
Cycles for compute  : 26942 cycles


Commencing back-propagation run for Inc4c_1x1
 - compute input-gradient:
 -- input-gradient: read cycles: 14367, write cycles: 3168
 - compute filter-gradient:
 -- filter-gradient: read cycles: 12575, write cycles: 12514
 - input-gradient-cycles: 14367, uitl: 87.27404544703138 %
 - filter-gradent-cycles: 12575, uitl: 99.66873757455268 %
Average utilization : 93.05918587846114 %
Cycles for compute  : 26942 cycles


Commencing back-propagation run for Inc4b_pp
 - compute input-gradient:
 -- input-gradient: read cycles: 7199, write cycles: 3168
 - compute filter-gradient:
 -- filter-gradient: read cycles: 6303, write cycles: 6304
 - input-gradient-cycles: 7199, uitl: 87.04906388908181 %
 - filter-gradent-cycles: 6304, uitl: 99.33910439473267 %
Average utilization : 92.78629728466153 %
Cycles for compute  : 13503 cycles


Commencing back-propagation run for Inc4b_5x5
 - compute input-gradient:
 -- input-gradient: read cycles: 11223, write cycles: 252
 - compute filter-gradient:
 -- filter-gradient: read cycles: 3823, write cycles: 3832
 - input-gradient-cycles: 11223, uitl: 65.47041023456295 %
 - filter-gradent-cycles: 3832, uitl: 97.89238245487837 %
Average utilization : 73.70842696979264 %
Cycles for compute  : 15055 cycles


Commencing back-propagation run for Inc4b_5x5red
 - compute input-gradient:
 -- input-gradient: read cycles: 2719, write cycles: 3168
 - compute filter-gradient:
 -- filter-gradient: read cycles: 3167, write cycles: 3199
 - input-gradient-cycles: 2719, uitl: 86.30305546616404 %
 - filter-gradent-cycles: 3199, uitl: 74.0292962582886 %
Average utilization : 79.69908071058444 %
Cycles for compute  : 6367 cycles


Commencing back-propagation run for Inc4b_3x3
 - compute input-gradient:
 -- input-gradient: read cycles: 56463, write cycles: 830
 - compute filter-gradient:
 -- filter-gradient: read cycles: 32271, write cycles: 32213
 - input-gradient-cycles: 56463, uitl: 76.5409669551299 %
 - filter-gradent-cycles: 32271, uitl: 98.37317657494344 %
Average utilization : 84.48095880313635 %
Cycles for compute  : 88734 cycles


Commencing back-propagation run for Inc4b_3x3red
 - compute input-gradient:
 -- input-gradient: read cycles: 12575, write cycles: 3168
 - compute filter-gradient:
 -- filter-gradient: read cycles: 12575, write cycles: 12514
 - input-gradient-cycles: 12575, uitl: 87.2418458001988 %
 - filter-gradent-cycles: 12575, uitl: 87.23664264413519 %
Average utilization : 87.239244222167 %
Cycles for compute  : 25150 cycles


Commencing back-propagation run for Inc4b_1x1
 - compute input-gradient:
 -- input-gradient: read cycles: 17951, write cycles: 3168
 - compute filter-gradient:
 -- filter-gradient: read cycles: 15711, write cycles: 15619
 - input-gradient-cycles: 17951, uitl: 87.31915831638905 %
 - filter-gradent-cycles: 15711, uitl: 99.73485933422442 %
Average utilization : 93.11391438231537 %
Cycles for compute  : 33662 cycles


Commencing back-propagation run for Inc4a_pp
 - compute input-gradient:
 -- input-gradient: read cycles: 6751, write cycles: 2972
 - compute filter-gradient:
 -- filter-gradient: read cycles: 5911, write cycles: 5912
 - input-gradient-cycles: 6751, uitl: 87.01913952562583 %
 - filter-gradent-cycles: 5912, uitl: 99.29527575706311 %
Average utilization : 92.75000678703996 %
Cycles for compute  : 12663 cycles


Commencing back-propagation run for Inc4a_5x5
 - compute input-gradient:
 -- input-gradient: read cycles: 8415, write cycles: 252
 - compute filter-gradient:
 -- filter-gradient: read cycles: 2615, write cycles: 2632
 - input-gradient-cycles: 8415, uitl: 43.66400679590018 %
 - filter-gradent-cycles: 2632, uitl: 71.65093212237093 %
Average utilization : 50.29916633612874 %
Cycles for compute  : 11047 cycles


Commencing back-propagation run for Inc4a_5x5red
 - compute input-gradient:
 -- input-gradient: read cycles: 1711, write cycles: 2972
 - compute filter-gradient:
 -- filter-gradient: read cycles: 2971, write cycles: 3003
 - input-gradient-cycles: 1711, uitl: 85.56388351110462 %
 - filter-gradent-cycles: 3003, uitl: 49.2989523729384 %
Average utilization : 62.55168564448953 %
Cycles for compute  : 5975 cycles


Commencing back-propagation run for Inc4a_3x3
 - compute input-gradient:
 -- input-gradient: read cycles: 39343, write cycles: 632
 - compute filter-gradient:
 -- filter-gradient: read cycles: 27247, write cycles: 27093
 - input-gradient-cycles: 39343, uitl: 87.41748750571894 %
 - filter-gradent-cycles: 27247, uitl: 92.72950347744707 %
Average utilization : 89.59103457257096 %
Cycles for compute  : 66590 cycles


Commencing back-propagation run for Inc4a_3x3red
 - compute input-gradient:
 -- input-gradient: read cycles: 10111, write cycles: 2972
 - compute filter-gradient:
 -- filter-gradient: read cycles: 8851, write cycles: 8821
 - input-gradient-cycles: 10111, uitl: 87.1789349161804 %
 - filter-gradent-cycles: 8851, uitl: 99.52936108914247 %
Average utilization : 92.94381320206202 %
Cycles for compute  : 18962 cycles


Commencing back-propagation run for Inc4a_1x1
 - compute input-gradient:
 -- input-gradient: read cycles: 20191, write cycles: 2972
 - compute filter-gradient:
 -- filter-gradient: read cycles: 17671, write cycles: 17548
 - input-gradient-cycles: 20191, uitl: 87.33922098645436 %
 - filter-gradent-cycles: 17671, uitl: 99.764267726784 %
Average utilization : 93.13825434307485 %
Cycles for compute  : 37862 cycles


Commencing back-propagation run for Inc3b_pp
 - compute input-gradient:
 -- input-gradient: read cycles: 12831, write cycles: 6304
 - compute filter-gradient:
 -- filter-gradient: read cycles: 12575, write cycles: 12576
 - input-gradient-cycles: 12831, uitl: 97.71652881692775 %
 - filter-gradent-cycles: 12576, uitl: 99.66873757455268 %
Average utilization : 98.68279761670472 %
Cycles for compute  : 25407 cycles


Commencing back-propagation run for Inc3b_5x5
 - compute input-gradient:
 -- input-gradient: read cycles: 60031, write cycles: 840
 - compute filter-gradient:
 -- filter-gradient: read cycles: 43231, write cycles: 43201
 - input-gradient-cycles: 60031, uitl: 97.93941099182089 %
 - filter-gradent-cycles: 43231, uitl: 99.90364264069764 %
Average utilization : 98.76174348986075 %
Cycles for compute  : 103262 cycles


Commencing back-propagation run for Inc3b_5x5red
 - compute input-gradient:
 -- input-gradient: read cycles: 6431, write cycles: 6304
 - compute filter-gradient:
 -- filter-gradient: read cycles: 6303, write cycles: 6335
 - input-gradient-cycles: 6431, uitl: 97.43442407868139 %
 - filter-gradent-cycles: 6335, uitl: 99.33910439473267 %
Average utilization : 98.37719147557719 %
Cycles for compute  : 12766 cycles


Commencing back-propagation run for Inc3b_3x3
 - compute input-gradient:
 -- input-gradient: read cycles: 172831, write cycles: 3176
 - compute filter-gradient:
 -- filter-gradient: read cycles: 146047, write cycles: 145924
 - input-gradient-cycles: 172831, uitl: 97.97895505580595 %
 - filter-gradent-cycles: 146047, uitl: 99.97147750381727 %
Average utilization : 98.89153581071758 %
Cycles for compute  : 318878 cycles


Commencing back-propagation run for Inc3b_3x3red
 - compute input-gradient:
 -- input-gradient: read cycles: 25631, write cycles: 6304
 - compute filter-gradient:
 -- filter-gradient: read cycles: 25119, write cycles: 25058
 - input-gradient-cycles: 25631, uitl: 97.85809298310639 %
 - filter-gradent-cycles: 25119, uitl: 99.8341643775628 %
Average utilization : 98.83616071428571 %
Cycles for compute  : 50750 cycles


Commencing back-propagation run for Inc3b_1x1
 - compute input-gradient:
 -- input-gradient: read cycles: 25631, write cycles: 6304
 - compute filter-gradient:
 -- filter-gradient: read cycles: 25119, write cycles: 25058
 - input-gradient-cycles: 25631, uitl: 97.85809298310639 %
 - filter-gradent-cycles: 25119, uitl: 99.8341643775628 %
Average utilization : 98.83616071428571 %
Cycles for compute  : 50750 cycles


Commencing back-propagation run for Inc3a_pp
 - compute input-gradient:
 -- input-gradient: read cycles: 4831, write cycles: 4736
 - compute filter-gradient:
 -- filter-gradient: read cycles: 4735, write cycles: 4767
 - input-gradient-cycles: 4831, uitl: 97.2471085179052 %
 - filter-gradent-cycles: 4767, uitl: 99.12024815205913 %
Average utilization : 98.1742793487351 %
Cycles for compute  : 9598 cycles


Commencing back-propagation run for Inc3a_5x5
 - compute input-gradient:
 -- input-gradient: read cycles: 20015, write cycles: 840
 - compute filter-gradient:
 -- filter-gradient: read cycles: 7503, write cycles: 7535
 - input-gradient-cycles: 20015, uitl: 48.956641893579814 %
 - filter-gradent-cycles: 7535, uitl: 95.88175146608023 %
Average utilization : 61.75114356966349 %
Cycles for compute  : 27550 cycles


Commencing back-propagation run for Inc3a_5x5red
 - compute input-gradient:
 -- input-gradient: read cycles: 2431, write cycles: 4736
 - compute filter-gradient:
 -- filter-gradient: read cycles: 4735, write cycles: 4767
 - input-gradient-cycles: 2431, uitl: 96.47650143973674 %
 - filter-gradent-cycles: 4767, uitl: 49.56012407602957 %
Average utilization : 65.47607626290818 %
Cycles for compute  : 9503 cycles


Commencing back-propagation run for Inc3a_3x3
 - compute input-gradient:
 -- input-gradient: read cycles: 86431, write cycles: 2392
 - compute filter-gradient:
 -- filter-gradient: read cycles: 73039, write cycles: 72978
 - input-gradient-cycles: 86431, uitl: 97.95791765975171 %
 - filter-gradent-cycles: 73039, uitl: 99.94296711345993 %
Average utilization : 98.86709196870885 %
Cycles for compute  : 159470 cycles


Commencing back-propagation run for Inc3a_3x3red
 - compute input-gradient:
 -- input-gradient: read cycles: 14431, write cycles: 4736
 - compute filter-gradient:
 -- filter-gradient: read cycles: 14143, write cycles: 14113
 - input-gradient-cycles: 14431, uitl: 97.74795795509667 %
 - filter-gradent-cycles: 14143, uitl: 99.70546383369864 %
Average utilization : 98.71684595261426 %
Cycles for compute  : 28574 cycles


Commencing back-propagation run for Inc3a_1x1
 - compute input-gradient:
 -- input-gradient: read cycles: 9631, write cycles: 4736
 - compute filter-gradient:
 -- filter-gradient: read cycles: 9439, write cycles: 9440
 - input-gradient-cycles: 9631, uitl: 97.62234256567335 %
 - filter-gradent-cycles: 9440, uitl: 99.55867941519229 %
Average utilization : 98.58076330624017 %
Cycles for compute  : 19071 cycles


Commencing back-propagation run for Conv2
 - compute input-gradient:
 -- input-gradient: read cycles: 338719, write cycles: 6312
 - compute filter-gradient:
 -- filter-gradient: read cycles: 314959, write cycles: 314836
 - input-gradient-cycles: 338719, uitl: 99.98770182658781 %
 - filter-gradent-cycles: 314959, uitl: 99.98677407218082 %
Average utilization : 99.98725481047242 %
Cycles for compute  : 653678 cycles


Commencing back-propagation run for Conv2red
 - compute input-gradient:
 -- input-gradient: read cycles: 12575, write cycles: 6304
 - compute filter-gradient:
 -- filter-gradient: read cycles: 12575, write cycles: 12576
 - input-gradient-cycles: 12575, uitl: 99.66873757455268 %
 - filter-gradent-cycles: 12576, uitl: 99.66873757455268 %
Average utilization : 99.66873757455268 %
Cycles for compute  : 25151 cycles


Commencing back-propagation run for Conv1
 - compute input-gradient:
 -- input-gradient: read cycles: 4917279, write cycles: 76895
 - compute filter-gradient:
 -- filter-gradient: read cycles: 118828, write cycles: 118842
 - input-gradient-cycles: 4917279, uitl: 9.374913093450667 %
 - filter-gradent-cycles: 118842, uitl: 91.85566204408893 %
Average utilization : 11.321063649089465 %
Cycles for compute  : 5036121 cycles

0 | HMC-7 | starts training, computation state: training, communication state: idle
0 | HMC-10 | starts training, computation state: training, communication state: idle
0 | HMC-6 | starts training, computation state: training, communication state: idle
0 | HMC-15 | starts training, computation state: training, communication state: idle
0 | HMC-12 | starts training, computation state: training, communication state: idle
0 | HMC-4 | starts training, computation state: training, communication state: idle
0 | HMC-5 | starts training, computation state: training, communication state: idle
0 | HMC-2 | starts training, computation state: training, communication state: idle
0 | HMC-3 | starts training, computation state: training, communication state: idle
0 | HMC-9 | starts training, computation state: training, communication state: idle
0 | HMC-14 | starts training, computation state: training, communication state: idle
0 | HMC-1 | starts training, computation state: training, communication state: idle
0 | HMC-0 | starts training, computation state: training, communication state: idle
0 | HMC-8 | starts training, computation state: training, communication state: idle
0 | HMC-11 | starts training, computation state: training, communication state: idle
0 | HMC-13 | starts training, computation state: training, communication state: idle
9386854 | HMC-7 finishes training, computation sate: idle, communication state: idle
9386854 | HMC-10 finishes training, computation sate: idle, communication state: idle
9386854 | HMC-6 finishes training, computation sate: idle, communication state: idle
9386854 | HMC-15 finishes training, computation sate: idle, communication state: idle
9386854 | HMC-12 finishes training, computation sate: idle, communication state: idle
9386854 | HMC-4 finishes training, computation sate: idle, communication state: idle
9386854 | HMC-5 finishes training, computation sate: idle, communication state: idle
9386854 | HMC-2 finishes training, computation sate: idle, communication state: idle
9386854 | HMC-3 finishes training, computation sate: idle, communication state: idle
9386854 | HMC-9 finishes training, computation sate: idle, communication state: idle
9386854 | HMC-14 finishes training, computation sate: idle, communication state: idle
9386854 | HMC-1 finishes training, computation sate: idle, communication state: idle
9386854 | HMC-0 finishes training, computation sate: idle, communication state: idle
9386854 | HMC-8 finishes training, computation sate: idle, communication state: idle
9386854 | HMC-11 finishes training, computation sate: idle, communication state: idle
9386854 | HMC-13 finishes training, computation sate: idle, communication state: idle
9386855 | HMC-7 | starts aggregation, computation state: aggregating, communication state: idle
9386855 | HMC-10 | starts aggregation, computation state: aggregating, communication state: idle
9386855 | HMC-6 | starts aggregation, computation state: aggregating, communication state: idle
9386855 | HMC-15 | starts aggregation, computation state: aggregating, communication state: idle
9386855 | HMC-12 | starts aggregation, computation state: aggregating, communication state: idle
9386855 | HMC-4 | starts aggregation, computation state: aggregating, communication state: idle
9386855 | HMC-5 | starts aggregation, computation state: aggregating, communication state: idle
9386855 | HMC-2 | starts aggregation, computation state: aggregating, communication state: idle
9386855 | HMC-3 | starts aggregation, computation state: aggregating, communication state: idle
9386855 | HMC-9 | starts aggregation, computation state: aggregating, communication state: idle
9386855 | HMC-14 | starts aggregation, computation state: aggregating, communication state: idle
9386855 | HMC-1 | starts aggregation, computation state: aggregating, communication state: idle
9386855 | HMC-0 | starts aggregation, computation state: aggregating, communication state: idle
9386855 | HMC-8 | starts aggregation, computation state: aggregating, communication state: idle
9386855 | HMC-11 | starts aggregation, computation state: aggregating, communication state: idle
9386855 | HMC-13 | starts aggregation, computation state: aggregating, communication state: idle
9601063 | HMC-7 | finishes aggregation , computation state: idle, communication state: reduce-scatter
9601063 | HMC-10 | finishes aggregation , computation state: idle, communication state: reduce-scatter
9601063 | HMC-6 | finishes aggregation , computation state: idle, communication state: reduce-scatter
9601063 | HMC-15 | finishes aggregation , computation state: idle, communication state: reduce-scatter
9601063 | HMC-12 | finishes aggregation , computation state: idle, communication state: reduce-scatter
9601063 | HMC-4 | finishes aggregation , computation state: idle, communication state: reduce-scatter
9601063 | HMC-5 | finishes aggregation , computation state: idle, communication state: reduce-scatter
9601063 | HMC-2 | finishes aggregation , computation state: idle, communication state: reduce-scatter
9601063 | HMC-3 | finishes aggregation , computation state: idle, communication state: reduce-scatter
9601063 | HMC-9 | finishes aggregation , computation state: idle, communication state: reduce-scatter
9601063 | HMC-14 | finishes aggregation , computation state: idle, communication state: reduce-scatter
9601063 | HMC-1 | finishes aggregation , computation state: idle, communication state: reduce-scatter
9601063 | HMC-0 | finishes aggregation , computation state: idle, communication state: reduce-scatter
9601063 | HMC-8 | finishes aggregation , computation state: idle, communication state: reduce-scatter
9601063 | HMC-11 | finishes aggregation , computation state: idle, communication state: reduce-scatter
9601063 | HMC-13 | finishes aggregation , computation state: idle, communication state: reduce-scatter
9601064 | HMC-7 | start reducing for flow 11 (from NI 0) to parent HMC-3 (to NI 0) at timestep 0
9601064 | HMC-10 | start reducing for flow 6 (from NI 0) to parent HMC-14 (to NI 0) at timestep 0
9601064 | HMC-6 | start reducing for flow 5 (from NI 0) to parent HMC-10 (to NI 0) at timestep 0
9601064 | HMC-15 | start reducing for flow 14 (from NI 0) to parent HMC-11 (to NI 0) at timestep 0
9601064 | HMC-12 | start reducing for flow 8 (from NI 0) to parent HMC-13 (to NI 0) at timestep 0
9601064 | HMC-4 | start reducing for flow 0 (from NI 0) to parent HMC-8 (to NI 0) at timestep 0
9601064 | HMC-5 | start reducing for flow 9 (from NI 0) to parent HMC-6 (to NI 0) at timestep 0
9601064 | HMC-2 | start reducing for flow 3 (from NI 0) to parent HMC-1 (to NI 0) at timestep 0
9601064 | HMC-3 | start reducing for flow 7 (from NI 0) to parent HMC-2 (to NI 0) at timestep 0
9601064 | HMC-9 | start reducing for flow 13 (from NI 0) to parent HMC-5 (to NI 0) at timestep 0
9601064 | HMC-14 | start reducing for flow 10 (from NI 0) to parent HMC-15 (to NI 0) at timestep 0
9601064 | HMC-1 | start reducing for flow 2 (from NI 0) to parent HMC-0 (to NI 0) at timestep 0
9601064 | HMC-0 | start reducing for flow 1 (from NI 0) to parent HMC-4 (to NI 0) at timestep 0
9601064 | HMC-8 | start reducing for flow 4 (from NI 0) to parent HMC-12 (to NI 0) at timestep 0
9601064 | HMC-11 | start reducing for flow 15 (from NI 0) to parent HMC-7 (to NI 0) at timestep 0
9601064 | HMC-13 | start reducing for flow 12 (from NI 0) to parent HMC-9 (to NI 0) at timestep 0
9713969 | HMC-3 | finishes reducing for flow 7 (from NI 0) to parent HMC-2 (to NI 0) at timestep 0
9713969 | HMC-9 | finishes reducing for flow 13 (from NI 0) to parent HMC-5 (to NI 0) at timestep 0
9713969 | HMC-14 | finishes reducing for flow 10 (from NI 0) to parent HMC-15 (to NI 0) at timestep 0
9713969 | HMC-0 | finishes reducing for flow 1 (from NI 0) to parent HMC-4 (to NI 0) at timestep 0
9713969 | HMC-1 | finishes reducing for flow 2 (from NI 0) to parent HMC-0 (to NI 0) at timestep 0
9713969 | HMC-8 | finishes reducing for flow 4 (from NI 0) to parent HMC-12 (to NI 0) at timestep 0
9713969 | HMC-11 | finishes reducing for flow 15 (from NI 0) to parent HMC-7 (to NI 0) at timestep 0
9713969 | HMC-13 | finishes reducing for flow 12 (from NI 0) to parent HMC-9 (to NI 0) at timestep 0
9713970 | HMC-7 | finishes reducing for flow 11 (from NI 0) to parent HMC-3 (to NI 0) at timestep 0
9713970 | HMC-10 | finishes reducing for flow 6 (from NI 0) to parent HMC-14 (to NI 0) at timestep 0
9713970 | HMC-6 | finishes reducing for flow 5 (from NI 0) to parent HMC-10 (to NI 0) at timestep 0
9713970 | HMC-15 | finishes reducing for flow 14 (from NI 0) to parent HMC-11 (to NI 0) at timestep 0
9713970 | HMC-12 | finishes reducing for flow 8 (from NI 0) to parent HMC-13 (to NI 0) at timestep 0
9713970 | HMC-4 | finishes reducing for flow 0 (from NI 0) to parent HMC-8 (to NI 0) at timestep 0
9713970 | HMC-5 | finishes reducing for flow 9 (from NI 0) to parent HMC-6 (to NI 0) at timestep 0
9713970 | HMC-2 | finishes reducing for flow 3 (from NI 0) to parent HMC-1 (to NI 0) at timestep 0
9715023 | HMC-7 | receives full reduce for flow 15 from child HMC-11
9715023 | HMC-10 | receives full reduce for flow 5 from child HMC-6
9715023 | HMC-6 | receives full reduce for flow 9 from child HMC-5
9715023 | HMC-15 | receives full reduce for flow 10 from child HMC-14
9715023 | HMC-12 | receives full reduce for flow 4 from child HMC-8
9715023 | HMC-4 | receives full reduce for flow 1 from child HMC-0
9715023 | HMC-5 | receives full reduce for flow 13 from child HMC-9
9715023 | HMC-2 | receives full reduce for flow 7 from child HMC-3
9715023 | HMC-3 | receives full reduce for flow 11 from child HMC-7
9715023 | HMC-9 | receives full reduce for flow 12 from child HMC-13
9715023 | HMC-14 | receives full reduce for flow 6 from child HMC-10
9715023 | HMC-1 | receives full reduce for flow 3 from child HMC-2
9715023 | HMC-0 | receives full reduce for flow 2 from child HMC-1
9715023 | HMC-8 | receives full reduce for flow 0 from child HMC-4
9715023 | HMC-11 | receives full reduce for flow 14 from child HMC-15
9715023 | HMC-13 | receives full reduce for flow 8 from child HMC-12
9715024 | HMC-7 | starts aggregation, computation state: aggregating, communication state: reduce-scatter
9715024 | HMC-10 | starts aggregation, computation state: aggregating, communication state: reduce-scatter
9715024 | HMC-6 | starts aggregation, computation state: aggregating, communication state: reduce-scatter
9715024 | HMC-15 | starts aggregation, computation state: aggregating, communication state: reduce-scatter
9715024 | HMC-12 | starts aggregation, computation state: aggregating, communication state: reduce-scatter
9715024 | HMC-4 | starts aggregation, computation state: aggregating, communication state: reduce-scatter
9715024 | HMC-5 | starts aggregation, computation state: aggregating, communication state: reduce-scatter
9715024 | HMC-2 | starts aggregation, computation state: aggregating, communication state: reduce-scatter
9715024 | HMC-3 | starts aggregation, computation state: aggregating, communication state: reduce-scatter
9715024 | HMC-9 | starts aggregation, computation state: aggregating, communication state: reduce-scatter
9715024 | HMC-14 | starts aggregation, computation state: aggregating, communication state: reduce-scatter
9715024 | HMC-1 | starts aggregation, computation state: aggregating, communication state: reduce-scatter
9715024 | HMC-0 | starts aggregation, computation state: aggregating, communication state: reduce-scatter
9715024 | HMC-8 | starts aggregation, computation state: aggregating, communication state: reduce-scatter
9715024 | HMC-11 | starts aggregation, computation state: aggregating, communication state: reduce-scatter
9715024 | HMC-13 | starts aggregation, computation state: aggregating, communication state: reduce-scatter
9728416 | HMC-7 | clear pending aggregation for flow 15 from child HMC-11
9728416 | HMC-7 | finishes aggregation , computation state: idle, communication state: reduce-scatter
9728416 | HMC-10 | clear pending aggregation for flow 5 from child HMC-6
9728416 | HMC-10 | finishes aggregation , computation state: idle, communication state: reduce-scatter
9728416 | HMC-6 | clear pending aggregation for flow 9 from child HMC-5
9728416 | HMC-6 | finishes aggregation , computation state: idle, communication state: reduce-scatter
9728416 | HMC-15 | clear pending aggregation for flow 10 from child HMC-14
9728416 | HMC-15 | finishes aggregation , computation state: idle, communication state: reduce-scatter
9728416 | HMC-12 | clear pending aggregation for flow 4 from child HMC-8
9728416 | HMC-12 | finishes aggregation , computation state: idle, communication state: reduce-scatter
9728416 | HMC-4 | clear pending aggregation for flow 1 from child HMC-0
9728416 | HMC-4 | finishes aggregation , computation state: idle, communication state: reduce-scatter
9728416 | HMC-5 | clear pending aggregation for flow 13 from child HMC-9
9728416 | HMC-5 | finishes aggregation , computation state: idle, communication state: reduce-scatter
9728416 | HMC-2 | clear pending aggregation for flow 7 from child HMC-3
9728416 | HMC-2 | finishes aggregation , computation state: idle, communication state: reduce-scatter
9728416 | HMC-3 | clear pending aggregation for flow 11 from child HMC-7
9728416 | HMC-3 | finishes aggregation , computation state: idle, communication state: reduce-scatter
9728416 | HMC-9 | clear pending aggregation for flow 12 from child HMC-13
9728416 | HMC-9 | finishes aggregation , computation state: idle, communication state: reduce-scatter
9728416 | HMC-14 | clear pending aggregation for flow 6 from child HMC-10
9728416 | HMC-14 | finishes aggregation , computation state: idle, communication state: reduce-scatter
9728416 | HMC-1 | clear pending aggregation for flow 3 from child HMC-2
9728416 | HMC-1 | finishes aggregation , computation state: idle, communication state: reduce-scatter
9728416 | HMC-0 | clear pending aggregation for flow 2 from child HMC-1
9728416 | HMC-0 | finishes aggregation , computation state: idle, communication state: reduce-scatter
9728416 | HMC-8 | clear pending aggregation for flow 0 from child HMC-4
9728416 | HMC-8 | finishes aggregation , computation state: idle, communication state: reduce-scatter
9728416 | HMC-11 | clear pending aggregation for flow 14 from child HMC-15
9728416 | HMC-11 | finishes aggregation , computation state: idle, communication state: reduce-scatter
9728416 | HMC-13 | clear pending aggregation for flow 8 from child HMC-12
9728416 | HMC-13 | finishes aggregation , computation state: idle, communication state: reduce-scatter
9728417 | HMC-7 | start reducing for flow 15 (from NI 0) to parent HMC-3 (to NI 0) at timestep 1
9728417 | HMC-10 | start reducing for flow 5 (from NI 0) to parent HMC-14 (to NI 0) at timestep 1
9728417 | HMC-6 | start reducing for flow 9 (from NI 0) to parent HMC-10 (to NI 0) at timestep 1
9728417 | HMC-15 | start reducing for flow 10 (from NI 0) to parent HMC-11 (to NI 0) at timestep 1
9728417 | HMC-12 | start reducing for flow 4 (from NI 0) to parent HMC-13 (to NI 0) at timestep 1
9728417 | HMC-4 | start reducing for flow 1 (from NI 0) to parent HMC-8 (to NI 0) at timestep 1
9728417 | HMC-5 | start reducing for flow 13 (from NI 0) to parent HMC-6 (to NI 0) at timestep 1
9728417 | HMC-2 | start reducing for flow 7 (from NI 0) to parent HMC-1 (to NI 0) at timestep 1
9728417 | HMC-3 | start reducing for flow 11 (from NI 0) to parent HMC-2 (to NI 0) at timestep 1
9728417 | HMC-9 | start reducing for flow 12 (from NI 0) to parent HMC-5 (to NI 0) at timestep 1
9728417 | HMC-14 | start reducing for flow 6 (from NI 0) to parent HMC-15 (to NI 0) at timestep 1
9728417 | HMC-1 | start reducing for flow 3 (from NI 0) to parent HMC-0 (to NI 0) at timestep 1
9728417 | HMC-0 | start reducing for flow 2 (from NI 0) to parent HMC-4 (to NI 0) at timestep 1
9728417 | HMC-8 | start reducing for flow 0 (from NI 0) to parent HMC-12 (to NI 0) at timestep 1
9728417 | HMC-11 | start reducing for flow 14 (from NI 0) to parent HMC-7 (to NI 0) at timestep 1
9728417 | HMC-13 | start reducing for flow 8 (from NI 0) to parent HMC-9 (to NI 0) at timestep 1
9841322 | HMC-3 | finishes reducing for flow 11 (from NI 0) to parent HMC-2 (to NI 0) at timestep 1
9841322 | HMC-9 | finishes reducing for flow 12 (from NI 0) to parent HMC-5 (to NI 0) at timestep 1
9841322 | HMC-14 | finishes reducing for flow 6 (from NI 0) to parent HMC-15 (to NI 0) at timestep 1
9841322 | HMC-0 | finishes reducing for flow 2 (from NI 0) to parent HMC-4 (to NI 0) at timestep 1
9841322 | HMC-1 | finishes reducing for flow 3 (from NI 0) to parent HMC-0 (to NI 0) at timestep 1
9841322 | HMC-8 | finishes reducing for flow 0 (from NI 0) to parent HMC-12 (to NI 0) at timestep 1
9841322 | HMC-11 | finishes reducing for flow 14 (from NI 0) to parent HMC-7 (to NI 0) at timestep 1
9841322 | HMC-13 | finishes reducing for flow 8 (from NI 0) to parent HMC-9 (to NI 0) at timestep 1
9841323 | HMC-7 | finishes reducing for flow 15 (from NI 0) to parent HMC-3 (to NI 0) at timestep 1
9841323 | HMC-10 | finishes reducing for flow 5 (from NI 0) to parent HMC-14 (to NI 0) at timestep 1
9841323 | HMC-6 | finishes reducing for flow 9 (from NI 0) to parent HMC-10 (to NI 0) at timestep 1
9841323 | HMC-15 | finishes reducing for flow 10 (from NI 0) to parent HMC-11 (to NI 0) at timestep 1
9841323 | HMC-12 | finishes reducing for flow 4 (from NI 0) to parent HMC-13 (to NI 0) at timestep 1
9841323 | HMC-4 | finishes reducing for flow 1 (from NI 0) to parent HMC-8 (to NI 0) at timestep 1
9841323 | HMC-5 | finishes reducing for flow 13 (from NI 0) to parent HMC-6 (to NI 0) at timestep 1
9841323 | HMC-2 | finishes reducing for flow 7 (from NI 0) to parent HMC-1 (to NI 0) at timestep 1
9842376 | HMC-7 | receives full reduce for flow 14 from child HMC-11
9842376 | HMC-10 | receives full reduce for flow 9 from child HMC-6
9842376 | HMC-6 | receives full reduce for flow 13 from child HMC-5
9842376 | HMC-15 | receives full reduce for flow 6 from child HMC-14
9842376 | HMC-12 | receives full reduce for flow 0 from child HMC-8
9842376 | HMC-4 | receives full reduce for flow 2 from child HMC-0
9842376 | HMC-5 | receives full reduce for flow 12 from child HMC-9
9842376 | HMC-2 | receives full reduce for flow 11 from child HMC-3
9842376 | HMC-3 | receives full reduce for flow 15 from child HMC-7
9842376 | HMC-9 | receives full reduce for flow 8 from child HMC-13
9842376 | HMC-14 | receives full reduce for flow 5 from child HMC-10
9842376 | HMC-1 | receives full reduce for flow 7 from child HMC-2
9842376 | HMC-0 | receives full reduce for flow 3 from child HMC-1
9842376 | HMC-8 | receives full reduce for flow 1 from child HMC-4
9842376 | HMC-11 | receives full reduce for flow 10 from child HMC-15
9842376 | HMC-13 | receives full reduce for flow 4 from child HMC-12
9842377 | HMC-7 | starts aggregation, computation state: aggregating, communication state: reduce-scatter
9842377 | HMC-10 | starts aggregation, computation state: aggregating, communication state: reduce-scatter
9842377 | HMC-6 | starts aggregation, computation state: aggregating, communication state: reduce-scatter
9842377 | HMC-15 | starts aggregation, computation state: aggregating, communication state: reduce-scatter
9842377 | HMC-12 | starts aggregation, computation state: aggregating, communication state: reduce-scatter
9842377 | HMC-4 | starts aggregation, computation state: aggregating, communication state: reduce-scatter
9842377 | HMC-5 | starts aggregation, computation state: aggregating, communication state: reduce-scatter
9842377 | HMC-2 | starts aggregation, computation state: aggregating, communication state: reduce-scatter
9842377 | HMC-3 | starts aggregation, computation state: aggregating, communication state: reduce-scatter
9842377 | HMC-9 | starts aggregation, computation state: aggregating, communication state: reduce-scatter
9842377 | HMC-14 | starts aggregation, computation state: aggregating, communication state: reduce-scatter
9842377 | HMC-1 | starts aggregation, computation state: aggregating, communication state: reduce-scatter
9842377 | HMC-0 | starts aggregation, computation state: aggregating, communication state: reduce-scatter
9842377 | HMC-8 | starts aggregation, computation state: aggregating, communication state: reduce-scatter
9842377 | HMC-11 | starts aggregation, computation state: aggregating, communication state: reduce-scatter
9842377 | HMC-13 | starts aggregation, computation state: aggregating, communication state: reduce-scatter
9855769 | HMC-7 | clear pending aggregation for flow 14 from child HMC-11
9855769 | HMC-7 | finishes aggregation , computation state: idle, communication state: reduce-scatter
9855769 | HMC-10 | clear pending aggregation for flow 9 from child HMC-6
9855769 | HMC-10 | finishes aggregation , computation state: idle, communication state: reduce-scatter
9855769 | HMC-6 | clear pending aggregation for flow 13 from child HMC-5
9855769 | HMC-6 | finishes aggregation , computation state: idle, communication state: reduce-scatter
9855769 | HMC-15 | clear pending aggregation for flow 6 from child HMC-14
9855769 | HMC-15 | finishes aggregation , computation state: idle, communication state: reduce-scatter
9855769 | HMC-12 | clear pending aggregation for flow 0 from child HMC-8
9855769 | HMC-12 | finishes aggregation , computation state: idle, communication state: reduce-scatter
9855769 | HMC-4 | clear pending aggregation for flow 2 from child HMC-0
9855769 | HMC-4 | finishes aggregation , computation state: idle, communication state: reduce-scatter
9855769 | HMC-5 | clear pending aggregation for flow 12 from child HMC-9
9855769 | HMC-5 | finishes aggregation , computation state: idle, communication state: reduce-scatter
9855769 | HMC-2 | clear pending aggregation for flow 11 from child HMC-3
9855769 | HMC-2 | finishes aggregation , computation state: idle, communication state: reduce-scatter
9855769 | HMC-3 | clear pending aggregation for flow 15 from child HMC-7
9855769 | HMC-3 | finishes aggregation , computation state: idle, communication state: reduce-scatter
9855769 | HMC-9 | clear pending aggregation for flow 8 from child HMC-13
9855769 | HMC-9 | finishes aggregation , computation state: idle, communication state: reduce-scatter
9855769 | HMC-14 | clear pending aggregation for flow 5 from child HMC-10
9855769 | HMC-14 | finishes aggregation , computation state: idle, communication state: reduce-scatter
9855769 | HMC-1 | clear pending aggregation for flow 7 from child HMC-2
9855769 | HMC-1 | finishes aggregation , computation state: idle, communication state: reduce-scatter
9855769 | HMC-0 | clear pending aggregation for flow 3 from child HMC-1
9855769 | HMC-0 | finishes aggregation , computation state: idle, communication state: reduce-scatter
9855769 | HMC-8 | clear pending aggregation for flow 1 from child HMC-4
9855769 | HMC-8 | finishes aggregation , computation state: idle, communication state: reduce-scatter
9855769 | HMC-11 | clear pending aggregation for flow 10 from child HMC-15
9855769 | HMC-11 | finishes aggregation , computation state: idle, communication state: reduce-scatter
9855769 | HMC-13 | clear pending aggregation for flow 4 from child HMC-12
9855769 | HMC-13 | finishes aggregation , computation state: idle, communication state: reduce-scatter
9855770 | HMC-7 | start reducing for flow 14 (from NI 0) to parent HMC-3 (to NI 0) at timestep 2
9855770 | HMC-10 | start reducing for flow 9 (from NI 0) to parent HMC-14 (to NI 0) at timestep 2
9855770 | HMC-6 | start reducing for flow 13 (from NI 0) to parent HMC-10 (to NI 0) at timestep 2
9855770 | HMC-15 | start reducing for flow 6 (from NI 0) to parent HMC-11 (to NI 0) at timestep 2
9855770 | HMC-12 | start reducing for flow 0 (from NI 0) to parent HMC-13 (to NI 0) at timestep 2
9855770 | HMC-4 | start reducing for flow 2 (from NI 0) to parent HMC-8 (to NI 0) at timestep 2
9855770 | HMC-5 | start reducing for flow 12 (from NI 0) to parent HMC-6 (to NI 0) at timestep 2
9855770 | HMC-2 | start reducing for flow 11 (from NI 0) to parent HMC-1 (to NI 0) at timestep 2
9855770 | HMC-3 | start reducing for flow 15 (from NI 0) to parent HMC-2 (to NI 0) at timestep 2
9855770 | HMC-9 | start reducing for flow 8 (from NI 0) to parent HMC-5 (to NI 0) at timestep 2
9855770 | HMC-14 | start reducing for flow 5 (from NI 0) to parent HMC-15 (to NI 0) at timestep 2
9855770 | HMC-1 | start reducing for flow 7 (from NI 0) to parent HMC-0 (to NI 0) at timestep 2
9855770 | HMC-0 | start reducing for flow 3 (from NI 0) to parent HMC-4 (to NI 0) at timestep 2
9855770 | HMC-8 | start reducing for flow 1 (from NI 0) to parent HMC-12 (to NI 0) at timestep 2
9855770 | HMC-11 | start reducing for flow 10 (from NI 0) to parent HMC-7 (to NI 0) at timestep 2
9855770 | HMC-13 | start reducing for flow 4 (from NI 0) to parent HMC-9 (to NI 0) at timestep 2
9968675 | HMC-3 | finishes reducing for flow 15 (from NI 0) to parent HMC-2 (to NI 0) at timestep 2
9968675 | HMC-9 | finishes reducing for flow 8 (from NI 0) to parent HMC-5 (to NI 0) at timestep 2
9968675 | HMC-14 | finishes reducing for flow 5 (from NI 0) to parent HMC-15 (to NI 0) at timestep 2
9968675 | HMC-0 | finishes reducing for flow 3 (from NI 0) to parent HMC-4 (to NI 0) at timestep 2
9968675 | HMC-1 | finishes reducing for flow 7 (from NI 0) to parent HMC-0 (to NI 0) at timestep 2
9968675 | HMC-8 | finishes reducing for flow 1 (from NI 0) to parent HMC-12 (to NI 0) at timestep 2
9968675 | HMC-11 | finishes reducing for flow 10 (from NI 0) to parent HMC-7 (to NI 0) at timestep 2
9968675 | HMC-13 | finishes reducing for flow 4 (from NI 0) to parent HMC-9 (to NI 0) at timestep 2
9968676 | HMC-7 | finishes reducing for flow 14 (from NI 0) to parent HMC-3 (to NI 0) at timestep 2
9968676 | HMC-10 | finishes reducing for flow 9 (from NI 0) to parent HMC-14 (to NI 0) at timestep 2
9968676 | HMC-6 | finishes reducing for flow 13 (from NI 0) to parent HMC-10 (to NI 0) at timestep 2
9968676 | HMC-15 | finishes reducing for flow 6 (from NI 0) to parent HMC-11 (to NI 0) at timestep 2
9968676 | HMC-12 | finishes reducing for flow 0 (from NI 0) to parent HMC-13 (to NI 0) at timestep 2
9968676 | HMC-4 | finishes reducing for flow 2 (from NI 0) to parent HMC-8 (to NI 0) at timestep 2
9968676 | HMC-5 | finishes reducing for flow 12 (from NI 0) to parent HMC-6 (to NI 0) at timestep 2
9968676 | HMC-2 | finishes reducing for flow 11 (from NI 0) to parent HMC-1 (to NI 0) at timestep 2
9969729 | HMC-7 | receives full reduce for flow 10 from child HMC-11
9969729 | HMC-10 | receives full reduce for flow 13 from child HMC-6
9969729 | HMC-6 | receives full reduce for flow 12 from child HMC-5
9969729 | HMC-15 | receives full reduce for flow 5 from child HMC-14
9969729 | HMC-12 | receives full reduce for flow 1 from child HMC-8
9969729 | HMC-4 | receives full reduce for flow 3 from child HMC-0
9969729 | HMC-5 | receives full reduce for flow 8 from child HMC-9
9969729 | HMC-2 | receives full reduce for flow 15 from child HMC-3
9969729 | HMC-3 | receives full reduce for flow 14 from child HMC-7
9969729 | HMC-9 | receives full reduce for flow 4 from child HMC-13
9969729 | HMC-14 | receives full reduce for flow 9 from child HMC-10
9969729 | HMC-1 | receives full reduce for flow 11 from child HMC-2
9969729 | HMC-0 | receives full reduce for flow 7 from child HMC-1
9969729 | HMC-8 | receives full reduce for flow 2 from child HMC-4
9969729 | HMC-11 | receives full reduce for flow 6 from child HMC-15
9969729 | HMC-13 | receives full reduce for flow 0 from child HMC-12
9969730 | HMC-7 | starts aggregation, computation state: aggregating, communication state: reduce-scatter
9969730 | HMC-10 | starts aggregation, computation state: aggregating, communication state: reduce-scatter
9969730 | HMC-6 | starts aggregation, computation state: aggregating, communication state: reduce-scatter
9969730 | HMC-15 | starts aggregation, computation state: aggregating, communication state: reduce-scatter
9969730 | HMC-12 | starts aggregation, computation state: aggregating, communication state: reduce-scatter
9969730 | HMC-4 | starts aggregation, computation state: aggregating, communication state: reduce-scatter
9969730 | HMC-5 | starts aggregation, computation state: aggregating, communication state: reduce-scatter
9969730 | HMC-2 | starts aggregation, computation state: aggregating, communication state: reduce-scatter
9969730 | HMC-3 | starts aggregation, computation state: aggregating, communication state: reduce-scatter
9969730 | HMC-9 | starts aggregation, computation state: aggregating, communication state: reduce-scatter
9969730 | HMC-14 | starts aggregation, computation state: aggregating, communication state: reduce-scatter
9969730 | HMC-1 | starts aggregation, computation state: aggregating, communication state: reduce-scatter
9969730 | HMC-0 | starts aggregation, computation state: aggregating, communication state: reduce-scatter
9969730 | HMC-8 | starts aggregation, computation state: aggregating, communication state: reduce-scatter
9969730 | HMC-11 | starts aggregation, computation state: aggregating, communication state: reduce-scatter
9969730 | HMC-13 | starts aggregation, computation state: aggregating, communication state: reduce-scatter
9983122 | HMC-7 | clear pending aggregation for flow 10 from child HMC-11
9983122 | HMC-7 | finishes aggregation , computation state: idle, communication state: reduce-scatter
9983122 | HMC-10 | clear pending aggregation for flow 13 from child HMC-6
9983122 | HMC-10 | finishes aggregation , computation state: idle, communication state: reduce-scatter
9983122 | HMC-6 | clear pending aggregation for flow 12 from child HMC-5
9983122 | HMC-6 | finishes aggregation , computation state: idle, communication state: reduce-scatter
9983122 | HMC-15 | clear pending aggregation for flow 5 from child HMC-14
9983122 | HMC-15 | finishes aggregation , computation state: idle, communication state: reduce-scatter
9983122 | HMC-12 | clear pending aggregation for flow 1 from child HMC-8
9983122 | HMC-12 | finishes aggregation , computation state: idle, communication state: reduce-scatter
9983122 | HMC-4 | clear pending aggregation for flow 3 from child HMC-0
9983122 | HMC-4 | finishes aggregation , computation state: idle, communication state: reduce-scatter
9983122 | HMC-5 | clear pending aggregation for flow 8 from child HMC-9
9983122 | HMC-5 | finishes aggregation , computation state: idle, communication state: reduce-scatter
9983122 | HMC-2 | clear pending aggregation for flow 15 from child HMC-3
9983122 | HMC-2 | finishes aggregation , computation state: idle, communication state: reduce-scatter
9983122 | HMC-3 | clear pending aggregation for flow 14 from child HMC-7
9983122 | HMC-3 | finishes aggregation , computation state: idle, communication state: reduce-scatter
9983122 | HMC-9 | clear pending aggregation for flow 4 from child HMC-13
9983122 | HMC-9 | finishes aggregation , computation state: idle, communication state: reduce-scatter
9983122 | HMC-14 | clear pending aggregation for flow 9 from child HMC-10
9983122 | HMC-14 | finishes aggregation , computation state: idle, communication state: reduce-scatter
9983122 | HMC-1 | clear pending aggregation for flow 11 from child HMC-2
9983122 | HMC-1 | finishes aggregation , computation state: idle, communication state: reduce-scatter
9983122 | HMC-0 | clear pending aggregation for flow 7 from child HMC-1
9983122 | HMC-0 | finishes aggregation , computation state: idle, communication state: reduce-scatter
9983122 | HMC-8 | clear pending aggregation for flow 2 from child HMC-4
9983122 | HMC-8 | finishes aggregation , computation state: idle, communication state: reduce-scatter
9983122 | HMC-11 | clear pending aggregation for flow 6 from child HMC-15
9983122 | HMC-11 | finishes aggregation , computation state: idle, communication state: reduce-scatter
9983122 | HMC-13 | clear pending aggregation for flow 0 from child HMC-12
9983122 | HMC-13 | finishes aggregation , computation state: idle, communication state: reduce-scatter
9983123 | HMC-7 | start reducing for flow 10 (from NI 0) to parent HMC-3 (to NI 0) at timestep 3
9983123 | HMC-10 | start reducing for flow 13 (from NI 0) to parent HMC-14 (to NI 0) at timestep 3
9983123 | HMC-6 | start reducing for flow 12 (from NI 0) to parent HMC-10 (to NI 0) at timestep 3
9983123 | HMC-15 | start reducing for flow 5 (from NI 0) to parent HMC-11 (to NI 0) at timestep 3
9983123 | HMC-12 | start reducing for flow 1 (from NI 0) to parent HMC-13 (to NI 0) at timestep 3
9983123 | HMC-4 | start reducing for flow 3 (from NI 0) to parent HMC-8 (to NI 0) at timestep 3
9983123 | HMC-5 | start reducing for flow 8 (from NI 0) to parent HMC-6 (to NI 0) at timestep 3
9983123 | HMC-2 | start reducing for flow 15 (from NI 0) to parent HMC-1 (to NI 0) at timestep 3
9983123 | HMC-3 | start reducing for flow 14 (from NI 0) to parent HMC-2 (to NI 0) at timestep 3
9983123 | HMC-9 | start reducing for flow 4 (from NI 0) to parent HMC-5 (to NI 0) at timestep 3
9983123 | HMC-14 | start reducing for flow 9 (from NI 0) to parent HMC-15 (to NI 0) at timestep 3
9983123 | HMC-1 | start reducing for flow 11 (from NI 0) to parent HMC-0 (to NI 0) at timestep 3
9983123 | HMC-0 | start reducing for flow 7 (from NI 0) to parent HMC-4 (to NI 0) at timestep 3
9983123 | HMC-8 | start reducing for flow 2 (from NI 0) to parent HMC-12 (to NI 0) at timestep 3
9983123 | HMC-11 | start reducing for flow 6 (from NI 0) to parent HMC-7 (to NI 0) at timestep 3
9983123 | HMC-13 | start reducing for flow 0 (from NI 0) to parent HMC-9 (to NI 0) at timestep 3
10096028 | HMC-3 | finishes reducing for flow 14 (from NI 0) to parent HMC-2 (to NI 0) at timestep 3
10096028 | HMC-9 | finishes reducing for flow 4 (from NI 0) to parent HMC-5 (to NI 0) at timestep 3
10096028 | HMC-14 | finishes reducing for flow 9 (from NI 0) to parent HMC-15 (to NI 0) at timestep 3
10096028 | HMC-0 | finishes reducing for flow 7 (from NI 0) to parent HMC-4 (to NI 0) at timestep 3
10096028 | HMC-1 | finishes reducing for flow 11 (from NI 0) to parent HMC-0 (to NI 0) at timestep 3
10096028 | HMC-8 | finishes reducing for flow 2 (from NI 0) to parent HMC-12 (to NI 0) at timestep 3
10096028 | HMC-11 | finishes reducing for flow 6 (from NI 0) to parent HMC-7 (to NI 0) at timestep 3
10096028 | HMC-13 | finishes reducing for flow 0 (from NI 0) to parent HMC-9 (to NI 0) at timestep 3
10096029 | HMC-7 | finishes reducing for flow 10 (from NI 0) to parent HMC-3 (to NI 0) at timestep 3
10096029 | HMC-10 | finishes reducing for flow 13 (from NI 0) to parent HMC-14 (to NI 0) at timestep 3
10096029 | HMC-6 | finishes reducing for flow 12 (from NI 0) to parent HMC-10 (to NI 0) at timestep 3
10096029 | HMC-15 | finishes reducing for flow 5 (from NI 0) to parent HMC-11 (to NI 0) at timestep 3
10096029 | HMC-12 | finishes reducing for flow 1 (from NI 0) to parent HMC-13 (to NI 0) at timestep 3
10096029 | HMC-4 | finishes reducing for flow 3 (from NI 0) to parent HMC-8 (to NI 0) at timestep 3
10096029 | HMC-5 | finishes reducing for flow 8 (from NI 0) to parent HMC-6 (to NI 0) at timestep 3
10096029 | HMC-2 | finishes reducing for flow 15 (from NI 0) to parent HMC-1 (to NI 0) at timestep 3
10097082 | HMC-7 | receives full reduce for flow 6 from child HMC-11
10097082 | HMC-10 | receives full reduce for flow 12 from child HMC-6
10097082 | HMC-6 | receives full reduce for flow 8 from child HMC-5
10097082 | HMC-15 | receives full reduce for flow 9 from child HMC-14
10097082 | HMC-12 | receives full reduce for flow 2 from child HMC-8
10097082 | HMC-4 | receives full reduce for flow 7 from child HMC-0
10097082 | HMC-5 | receives full reduce for flow 4 from child HMC-9
10097082 | HMC-2 | receives full reduce for flow 14 from child HMC-3
10097082 | HMC-3 | receives full reduce for flow 10 from child HMC-7
10097082 | HMC-9 | receives full reduce for flow 0 from child HMC-13
10097082 | HMC-14 | receives full reduce for flow 13 from child HMC-10
10097082 | HMC-1 | receives full reduce for flow 15 from child HMC-2
10097082 | HMC-0 | receives full reduce for flow 11 from child HMC-1
10097082 | HMC-8 | receives full reduce for flow 3 from child HMC-4
10097082 | HMC-11 | receives full reduce for flow 5 from child HMC-15
10097082 | HMC-13 | receives full reduce for flow 1 from child HMC-12
10097083 | HMC-7 | starts aggregation, computation state: aggregating, communication state: reduce-scatter
10097083 | HMC-10 | starts aggregation, computation state: aggregating, communication state: reduce-scatter
10097083 | HMC-6 | starts aggregation, computation state: aggregating, communication state: reduce-scatter
10097083 | HMC-15 | starts aggregation, computation state: aggregating, communication state: reduce-scatter
10097083 | HMC-12 | starts aggregation, computation state: aggregating, communication state: reduce-scatter
10097083 | HMC-4 | starts aggregation, computation state: aggregating, communication state: reduce-scatter
10097083 | HMC-5 | starts aggregation, computation state: aggregating, communication state: reduce-scatter
10097083 | HMC-2 | starts aggregation, computation state: aggregating, communication state: reduce-scatter
10097083 | HMC-3 | starts aggregation, computation state: aggregating, communication state: reduce-scatter
10097083 | HMC-9 | starts aggregation, computation state: aggregating, communication state: reduce-scatter
10097083 | HMC-14 | starts aggregation, computation state: aggregating, communication state: reduce-scatter
10097083 | HMC-1 | starts aggregation, computation state: aggregating, communication state: reduce-scatter
10097083 | HMC-0 | starts aggregation, computation state: aggregating, communication state: reduce-scatter
10097083 | HMC-8 | starts aggregation, computation state: aggregating, communication state: reduce-scatter
10097083 | HMC-11 | starts aggregation, computation state: aggregating, communication state: reduce-scatter
10097083 | HMC-13 | starts aggregation, computation state: aggregating, communication state: reduce-scatter
10110475 | HMC-7 | clear pending aggregation for flow 6 from child HMC-11
10110475 | HMC-7 | finishes aggregation , computation state: idle, communication state: reduce-scatter
10110475 | HMC-10 | clear pending aggregation for flow 12 from child HMC-6
10110475 | HMC-10 | finishes aggregation , computation state: idle, communication state: reduce-scatter
10110475 | HMC-6 | clear pending aggregation for flow 8 from child HMC-5
10110475 | HMC-6 | finishes aggregation , computation state: idle, communication state: reduce-scatter
10110475 | HMC-15 | clear pending aggregation for flow 9 from child HMC-14
10110475 | HMC-15 | finishes aggregation , computation state: idle, communication state: reduce-scatter
10110475 | HMC-12 | clear pending aggregation for flow 2 from child HMC-8
10110475 | HMC-12 | finishes aggregation , computation state: idle, communication state: reduce-scatter
10110475 | HMC-4 | clear pending aggregation for flow 7 from child HMC-0
10110475 | HMC-4 | finishes aggregation , computation state: idle, communication state: reduce-scatter
10110475 | HMC-5 | clear pending aggregation for flow 4 from child HMC-9
10110475 | HMC-5 | finishes aggregation , computation state: idle, communication state: reduce-scatter
10110475 | HMC-2 | clear pending aggregation for flow 14 from child HMC-3
10110475 | HMC-2 | finishes aggregation , computation state: idle, communication state: reduce-scatter
10110475 | HMC-3 | clear pending aggregation for flow 10 from child HMC-7
10110475 | HMC-3 | finishes aggregation , computation state: idle, communication state: reduce-scatter
10110475 | HMC-9 | clear pending aggregation for flow 0 from child HMC-13
10110475 | HMC-9 | finishes aggregation , computation state: idle, communication state: reduce-scatter
10110475 | HMC-14 | clear pending aggregation for flow 13 from child HMC-10
10110475 | HMC-14 | finishes aggregation , computation state: idle, communication state: reduce-scatter
10110475 | HMC-1 | clear pending aggregation for flow 15 from child HMC-2
10110475 | HMC-1 | finishes aggregation , computation state: idle, communication state: reduce-scatter
10110475 | HMC-0 | clear pending aggregation for flow 11 from child HMC-1
10110475 | HMC-0 | finishes aggregation , computation state: idle, communication state: reduce-scatter
10110475 | HMC-8 | clear pending aggregation for flow 3 from child HMC-4
10110475 | HMC-8 | finishes aggregation , computation state: idle, communication state: reduce-scatter
10110475 | HMC-11 | clear pending aggregation for flow 5 from child HMC-15
10110475 | HMC-11 | finishes aggregation , computation state: idle, communication state: reduce-scatter
10110475 | HMC-13 | clear pending aggregation for flow 1 from child HMC-12
10110475 | HMC-13 | finishes aggregation , computation state: idle, communication state: reduce-scatter
10110476 | HMC-7 | start reducing for flow 6 (from NI 0) to parent HMC-3 (to NI 0) at timestep 4
10110476 | HMC-10 | start reducing for flow 12 (from NI 0) to parent HMC-14 (to NI 0) at timestep 4
10110476 | HMC-6 | start reducing for flow 8 (from NI 0) to parent HMC-10 (to NI 0) at timestep 4
10110476 | HMC-15 | start reducing for flow 9 (from NI 0) to parent HMC-11 (to NI 0) at timestep 4
10110476 | HMC-12 | start reducing for flow 2 (from NI 0) to parent HMC-13 (to NI 0) at timestep 4
10110476 | HMC-4 | start reducing for flow 7 (from NI 0) to parent HMC-8 (to NI 0) at timestep 4
10110476 | HMC-5 | start reducing for flow 4 (from NI 0) to parent HMC-6 (to NI 0) at timestep 4
10110476 | HMC-2 | start reducing for flow 14 (from NI 0) to parent HMC-1 (to NI 0) at timestep 4
10110476 | HMC-3 | start reducing for flow 10 (from NI 0) to parent HMC-2 (to NI 0) at timestep 4
10110476 | HMC-9 | start reducing for flow 0 (from NI 0) to parent HMC-5 (to NI 0) at timestep 4
10110476 | HMC-14 | start reducing for flow 13 (from NI 0) to parent HMC-15 (to NI 0) at timestep 4
10110476 | HMC-1 | start reducing for flow 15 (from NI 0) to parent HMC-0 (to NI 0) at timestep 4
10110476 | HMC-0 | start reducing for flow 11 (from NI 0) to parent HMC-4 (to NI 0) at timestep 4
10110476 | HMC-8 | start reducing for flow 3 (from NI 0) to parent HMC-12 (to NI 0) at timestep 4
10110476 | HMC-11 | start reducing for flow 5 (from NI 0) to parent HMC-7 (to NI 0) at timestep 4
10110476 | HMC-13 | start reducing for flow 1 (from NI 0) to parent HMC-9 (to NI 0) at timestep 4
10223381 | HMC-3 | finishes reducing for flow 10 (from NI 0) to parent HMC-2 (to NI 0) at timestep 4
10223381 | HMC-9 | finishes reducing for flow 0 (from NI 0) to parent HMC-5 (to NI 0) at timestep 4
10223381 | HMC-14 | finishes reducing for flow 13 (from NI 0) to parent HMC-15 (to NI 0) at timestep 4
10223381 | HMC-0 | finishes reducing for flow 11 (from NI 0) to parent HMC-4 (to NI 0) at timestep 4
10223381 | HMC-1 | finishes reducing for flow 15 (from NI 0) to parent HMC-0 (to NI 0) at timestep 4
10223381 | HMC-8 | finishes reducing for flow 3 (from NI 0) to parent HMC-12 (to NI 0) at timestep 4
10223381 | HMC-11 | finishes reducing for flow 5 (from NI 0) to parent HMC-7 (to NI 0) at timestep 4
10223381 | HMC-13 | finishes reducing for flow 1 (from NI 0) to parent HMC-9 (to NI 0) at timestep 4
10223382 | HMC-7 | finishes reducing for flow 6 (from NI 0) to parent HMC-3 (to NI 0) at timestep 4
10223382 | HMC-10 | finishes reducing for flow 12 (from NI 0) to parent HMC-14 (to NI 0) at timestep 4
10223382 | HMC-6 | finishes reducing for flow 8 (from NI 0) to parent HMC-10 (to NI 0) at timestep 4
10223382 | HMC-15 | finishes reducing for flow 9 (from NI 0) to parent HMC-11 (to NI 0) at timestep 4
10223382 | HMC-12 | finishes reducing for flow 2 (from NI 0) to parent HMC-13 (to NI 0) at timestep 4
10223382 | HMC-4 | finishes reducing for flow 7 (from NI 0) to parent HMC-8 (to NI 0) at timestep 4
10223382 | HMC-5 | finishes reducing for flow 4 (from NI 0) to parent HMC-6 (to NI 0) at timestep 4
10223382 | HMC-2 | finishes reducing for flow 14 (from NI 0) to parent HMC-1 (to NI 0) at timestep 4
10224435 | HMC-7 | receives full reduce for flow 5 from child HMC-11
10224435 | HMC-10 | receives full reduce for flow 8 from child HMC-6
10224435 | HMC-6 | receives full reduce for flow 4 from child HMC-5
10224435 | HMC-15 | receives full reduce for flow 13 from child HMC-14
10224435 | HMC-12 | receives full reduce for flow 3 from child HMC-8
10224435 | HMC-4 | receives full reduce for flow 11 from child HMC-0
10224435 | HMC-5 | receives full reduce for flow 0 from child HMC-9
10224435 | HMC-2 | receives full reduce for flow 10 from child HMC-3
10224435 | HMC-3 | receives full reduce for flow 6 from child HMC-7
10224435 | HMC-9 | receives full reduce for flow 1 from child HMC-13
10224435 | HMC-14 | receives full reduce for flow 12 from child HMC-10
10224435 | HMC-1 | receives full reduce for flow 14 from child HMC-2
10224435 | HMC-0 | receives full reduce for flow 15 from child HMC-1
10224435 | HMC-8 | receives full reduce for flow 7 from child HMC-4
10224435 | HMC-11 | receives full reduce for flow 9 from child HMC-15
10224435 | HMC-13 | receives full reduce for flow 2 from child HMC-12
10224436 | HMC-7 | starts aggregation, computation state: aggregating, communication state: reduce-scatter
10224436 | HMC-10 | starts aggregation, computation state: aggregating, communication state: reduce-scatter
10224436 | HMC-6 | starts aggregation, computation state: aggregating, communication state: reduce-scatter
10224436 | HMC-15 | starts aggregation, computation state: aggregating, communication state: reduce-scatter
10224436 | HMC-12 | starts aggregation, computation state: aggregating, communication state: reduce-scatter
10224436 | HMC-4 | starts aggregation, computation state: aggregating, communication state: reduce-scatter
10224436 | HMC-5 | starts aggregation, computation state: aggregating, communication state: reduce-scatter
10224436 | HMC-2 | starts aggregation, computation state: aggregating, communication state: reduce-scatter
10224436 | HMC-3 | starts aggregation, computation state: aggregating, communication state: reduce-scatter
10224436 | HMC-9 | starts aggregation, computation state: aggregating, communication state: reduce-scatter
10224436 | HMC-14 | starts aggregation, computation state: aggregating, communication state: reduce-scatter
10224436 | HMC-1 | starts aggregation, computation state: aggregating, communication state: reduce-scatter
10224436 | HMC-0 | starts aggregation, computation state: aggregating, communication state: reduce-scatter
10224436 | HMC-8 | starts aggregation, computation state: aggregating, communication state: reduce-scatter
10224436 | HMC-11 | starts aggregation, computation state: aggregating, communication state: reduce-scatter
10224436 | HMC-13 | starts aggregation, computation state: aggregating, communication state: reduce-scatter
10237828 | HMC-7 | clear pending aggregation for flow 5 from child HMC-11
10237828 | HMC-7 | finishes aggregation , computation state: idle, communication state: reduce-scatter
10237828 | HMC-10 | clear pending aggregation for flow 8 from child HMC-6
10237828 | HMC-10 | finishes aggregation , computation state: idle, communication state: reduce-scatter
10237828 | HMC-6 | clear pending aggregation for flow 4 from child HMC-5
10237828 | HMC-6 | finishes aggregation , computation state: idle, communication state: reduce-scatter
10237828 | HMC-15 | clear pending aggregation for flow 13 from child HMC-14
10237828 | HMC-15 | finishes aggregation , computation state: idle, communication state: reduce-scatter
10237828 | HMC-12 | clear pending aggregation for flow 3 from child HMC-8
10237828 | HMC-12 | finishes aggregation , computation state: idle, communication state: reduce-scatter
10237828 | HMC-4 | clear pending aggregation for flow 11 from child HMC-0
10237828 | HMC-4 | finishes aggregation , computation state: idle, communication state: reduce-scatter
10237828 | HMC-5 | clear pending aggregation for flow 0 from child HMC-9
10237828 | HMC-5 | finishes aggregation , computation state: idle, communication state: reduce-scatter
10237828 | HMC-2 | clear pending aggregation for flow 10 from child HMC-3
10237828 | HMC-2 | finishes aggregation , computation state: idle, communication state: reduce-scatter
10237828 | HMC-3 | clear pending aggregation for flow 6 from child HMC-7
10237828 | HMC-3 | finishes aggregation , computation state: idle, communication state: reduce-scatter
10237828 | HMC-9 | clear pending aggregation for flow 1 from child HMC-13
10237828 | HMC-9 | finishes aggregation , computation state: idle, communication state: reduce-scatter
10237828 | HMC-14 | clear pending aggregation for flow 12 from child HMC-10
10237828 | HMC-14 | finishes aggregation , computation state: idle, communication state: reduce-scatter
10237828 | HMC-1 | clear pending aggregation for flow 14 from child HMC-2
[...]
12764919 | HMC-1 | receives full gather for flow 15 from parent HMC-0
12764919 | HMC-0 | receives full gather for flow 11 from parent HMC-4
12764919 | HMC-8 | receives full gather for flow 3 from parent HMC-12
12764919 | HMC-11 | receives full gather for flow 5 from parent HMC-7
12764919 | HMC-13 | receives full gather for flow 1 from parent HMC-9
12764920 | HMC-7 | start gathering for flow 6 (from NI 0) to child HMC-11 (to NI 0) at timestep 27
12764920 | HMC-10 | start gathering for flow 12 (from NI 0) to child HMC-6 (to NI 0) at timestep 27
12764920 | HMC-6 | start gathering for flow 8 (from NI 0) to child HMC-5 (to NI 0) at timestep 27
12764920 | HMC-15 | start gathering for flow 9 (from NI 0) to child HMC-14 (to NI 0) at timestep 27
12764920 | HMC-12 | start gathering for flow 2 (from NI 0) to child HMC-8 (to NI 0) at timestep 27
12764920 | HMC-4 | start gathering for flow 7 (from NI 0) to child HMC-0 (to NI 0) at timestep 27
12764920 | HMC-5 | start gathering for flow 4 (from NI 0) to child HMC-9 (to NI 0) at timestep 27
12764920 | HMC-2 | start gathering for flow 14 (from NI 0) to child HMC-3 (to NI 0) at timestep 27
12764920 | HMC-3 | start gathering for flow 10 (from NI 0) to child HMC-7 (to NI 0) at timestep 27
12764920 | HMC-9 | start gathering for flow 0 (from NI 0) to child HMC-13 (to NI 0) at timestep 27
12764920 | HMC-14 | start gathering for flow 13 (from NI 0) to child HMC-10 (to NI 0) at timestep 27
12764920 | HMC-1 | start gathering for flow 15 (from NI 0) to child HMC-2 (to NI 0) at timestep 27
12764920 | HMC-0 | start gathering for flow 11 (from NI 0) to child HMC-1 (to NI 0) at timestep 27
12764920 | HMC-8 | start gathering for flow 3 (from NI 0) to child HMC-4 (to NI 0) at timestep 27
12764920 | HMC-11 | start gathering for flow 5 (from NI 0) to child HMC-15 (to NI 0) at timestep 27
12764920 | HMC-13 | start gathering for flow 1 (from NI 0) to child HMC-12 (to NI 0) at timestep 27
12877825 | HMC-3 | finishes gather for flow 10 (from NI 0) to child HMC-7 (to NI 0) at timestep 27
12877825 | HMC-9 | finishes gather for flow 0 (from NI 0) to child HMC-13 (to NI 0) at timestep 27
12877825 | HMC-14 | finishes gather for flow 13 (from NI 0) to child HMC-10 (to NI 0) at timestep 27
12877825 | HMC-0 | finishes gather for flow 11 (from NI 0) to child HMC-1 (to NI 0) at timestep 27
12877825 | HMC-1 | finishes gather for flow 15 (from NI 0) to child HMC-2 (to NI 0) at timestep 27
12877825 | HMC-8 | finishes gather for flow 3 (from NI 0) to child HMC-4 (to NI 0) at timestep 27
12877825 | HMC-11 | finishes gather for flow 5 (from NI 0) to child HMC-15 (to NI 0) at timestep 27
12877825 | HMC-13 | finishes gather for flow 1 (from NI 0) to child HMC-12 (to NI 0) at timestep 27
12877826 | HMC-7 | finishes gather for flow 6 (from NI 0) to child HMC-11 (to NI 0) at timestep 27
12877826 | HMC-10 | finishes gather for flow 12 (from NI 0) to child HMC-6 (to NI 0) at timestep 27
12877826 | HMC-6 | finishes gather for flow 8 (from NI 0) to child HMC-5 (to NI 0) at timestep 27
12877826 | HMC-15 | finishes gather for flow 9 (from NI 0) to child HMC-14 (to NI 0) at timestep 27
12877826 | HMC-12 | finishes gather for flow 2 (from NI 0) to child HMC-8 (to NI 0) at timestep 27
12877826 | HMC-4 | finishes gather for flow 7 (from NI 0) to child HMC-0 (to NI 0) at timestep 27
12877826 | HMC-5 | finishes gather for flow 4 (from NI 0) to child HMC-9 (to NI 0) at timestep 27
12877826 | HMC-2 | finishes gather for flow 14 (from NI 0) to child HMC-3 (to NI 0) at timestep 27
12878879 | HMC-7 | receives full gather for flow 10 from parent HMC-3
12878879 | HMC-10 | receives full gather for flow 13 from parent HMC-14
12878879 | HMC-6 | receives full gather for flow 12 from parent HMC-10
12878879 | HMC-15 | receives full gather for flow 5 from parent HMC-11
12878879 | HMC-12 | receives full gather for flow 1 from parent HMC-13
12878879 | HMC-4 | receives full gather for flow 3 from parent HMC-8
12878879 | HMC-5 | receives full gather for flow 8 from parent HMC-6
12878879 | HMC-2 | receives full gather for flow 15 from parent HMC-1
12878879 | HMC-3 | receives full gather for flow 14 from parent HMC-2
12878879 | HMC-9 | receives full gather for flow 4 from parent HMC-5
12878879 | HMC-14 | receives full gather for flow 9 from parent HMC-15
12878879 | HMC-1 | receives full gather for flow 11 from parent HMC-0
12878879 | HMC-0 | receives full gather for flow 7 from parent HMC-4
12878879 | HMC-8 | receives full gather for flow 2 from parent HMC-12
12878879 | HMC-11 | receives full gather for flow 6 from parent HMC-7
12878879 | HMC-13 | receives full gather for flow 0 from parent HMC-9
12878880 | HMC-7 | start gathering for flow 10 (from NI 0) to child HMC-11 (to NI 0) at timestep 28
12878880 | HMC-10 | start gathering for flow 13 (from NI 0) to child HMC-6 (to NI 0) at timestep 28
12878880 | HMC-6 | start gathering for flow 12 (from NI 0) to child HMC-5 (to NI 0) at timestep 28
12878880 | HMC-15 | start gathering for flow 5 (from NI 0) to child HMC-14 (to NI 0) at timestep 28
12878880 | HMC-12 | start gathering for flow 1 (from NI 0) to child HMC-8 (to NI 0) at timestep 28
12878880 | HMC-4 | start gathering for flow 3 (from NI 0) to child HMC-0 (to NI 0) at timestep 28
12878880 | HMC-5 | start gathering for flow 8 (from NI 0) to child HMC-9 (to NI 0) at timestep 28
12878880 | HMC-2 | start gathering for flow 15 (from NI 0) to child HMC-3 (to NI 0) at timestep 28
12878880 | HMC-3 | start gathering for flow 14 (from NI 0) to child HMC-7 (to NI 0) at timestep 28
12878880 | HMC-9 | start gathering for flow 4 (from NI 0) to child HMC-13 (to NI 0) at timestep 28
12878880 | HMC-14 | start gathering for flow 9 (from NI 0) to child HMC-10 (to NI 0) at timestep 28
12878880 | HMC-1 | start gathering for flow 11 (from NI 0) to child HMC-2 (to NI 0) at timestep 28
12878880 | HMC-0 | start gathering for flow 7 (from NI 0) to child HMC-1 (to NI 0) at timestep 28
12878880 | HMC-8 | start gathering for flow 2 (from NI 0) to child HMC-4 (to NI 0) at timestep 28
12878880 | HMC-11 | start gathering for flow 6 (from NI 0) to child HMC-15 (to NI 0) at timestep 28
12878880 | HMC-13 | start gathering for flow 0 (from NI 0) to child HMC-12 (to NI 0) at timestep 28
12991785 | HMC-3 | finishes gather for flow 14 (from NI 0) to child HMC-7 (to NI 0) at timestep 28
12991785 | HMC-9 | finishes gather for flow 4 (from NI 0) to child HMC-13 (to NI 0) at timestep 28
12991785 | HMC-14 | finishes gather for flow 9 (from NI 0) to child HMC-10 (to NI 0) at timestep 28
12991785 | HMC-0 | finishes gather for flow 7 (from NI 0) to child HMC-1 (to NI 0) at timestep 28
12991785 | HMC-1 | finishes gather for flow 11 (from NI 0) to child HMC-2 (to NI 0) at timestep 28
12991785 | HMC-8 | finishes gather for flow 2 (from NI 0) to child HMC-4 (to NI 0) at timestep 28
12991785 | HMC-11 | finishes gather for flow 6 (from NI 0) to child HMC-15 (to NI 0) at timestep 28
12991785 | HMC-13 | finishes gather for flow 0 (from NI 0) to child HMC-12 (to NI 0) at timestep 28
12991786 | HMC-7 | finishes gather for flow 10 (from NI 0) to child HMC-11 (to NI 0) at timestep 28
12991786 | HMC-10 | finishes gather for flow 13 (from NI 0) to child HMC-6 (to NI 0) at timestep 28
12991786 | HMC-6 | finishes gather for flow 12 (from NI 0) to child HMC-5 (to NI 0) at timestep 28
12991786 | HMC-15 | finishes gather for flow 5 (from NI 0) to child HMC-14 (to NI 0) at timestep 28
12991786 | HMC-12 | finishes gather for flow 1 (from NI 0) to child HMC-8 (to NI 0) at timestep 28
12991786 | HMC-4 | finishes gather for flow 3 (from NI 0) to child HMC-0 (to NI 0) at timestep 28
12991786 | HMC-5 | finishes gather for flow 8 (from NI 0) to child HMC-9 (to NI 0) at timestep 28
12991786 | HMC-2 | finishes gather for flow 15 (from NI 0) to child HMC-3 (to NI 0) at timestep 28
12992839 | HMC-7 | receives full gather for flow 14 from parent HMC-3
12992839 | HMC-10 | receives full gather for flow 9 from parent HMC-14
12992839 | HMC-6 | receives full gather for flow 13 from parent HMC-10
12992839 | HMC-15 | receives full gather for flow 6 from parent HMC-11
12992839 | HMC-12 | receives full gather for flow 0 from parent HMC-13
12992839 | HMC-4 | receives full gather for flow 2 from parent HMC-8
12992839 | HMC-5 | receives full gather for flow 12 from parent HMC-6
12992839 | HMC-2 | receives full gather for flow 11 from parent HMC-1
12992839 | HMC-3 | receives full gather for flow 15 from parent HMC-2
12992839 | HMC-9 | receives full gather for flow 8 from parent HMC-5
12992839 | HMC-14 | receives full gather for flow 5 from parent HMC-15
12992839 | HMC-1 | receives full gather for flow 7 from parent HMC-0
12992839 | HMC-0 | receives full gather for flow 3 from parent HMC-4
12992839 | HMC-8 | receives full gather for flow 1 from parent HMC-12
12992839 | HMC-11 | receives full gather for flow 10 from parent HMC-7
12992839 | HMC-13 | receives full gather for flow 4 from parent HMC-9
12992840 | HMC-7 | start gathering for flow 14 (from NI 0) to child HMC-11 (to NI 0) at timestep 29
12992840 | HMC-10 | start gathering for flow 9 (from NI 0) to child HMC-6 (to NI 0) at timestep 29
12992840 | HMC-6 | start gathering for flow 13 (from NI 0) to child HMC-5 (to NI 0) at timestep 29
12992840 | HMC-15 | start gathering for flow 6 (from NI 0) to child HMC-14 (to NI 0) at timestep 29
12992840 | HMC-12 | start gathering for flow 0 (from NI 0) to child HMC-8 (to NI 0) at timestep 29
12992840 | HMC-4 | start gathering for flow 2 (from NI 0) to child HMC-0 (to NI 0) at timestep 29
12992840 | HMC-5 | start gathering for flow 12 (from NI 0) to child HMC-9 (to NI 0) at timestep 29
12992840 | HMC-2 | start gathering for flow 11 (from NI 0) to child HMC-3 (to NI 0) at timestep 29
12992840 | HMC-3 | start gathering for flow 15 (from NI 0) to child HMC-7 (to NI 0) at timestep 29
12992840 | HMC-9 | start gathering for flow 8 (from NI 0) to child HMC-13 (to NI 0) at timestep 29
12992840 | HMC-14 | start gathering for flow 5 (from NI 0) to child HMC-10 (to NI 0) at timestep 29
12992840 | HMC-1 | start gathering for flow 7 (from NI 0) to child HMC-2 (to NI 0) at timestep 29
12992840 | HMC-0 | start gathering for flow 3 (from NI 0) to child HMC-1 (to NI 0) at timestep 29
12992840 | HMC-8 | start gathering for flow 1 (from NI 0) to child HMC-4 (to NI 0) at timestep 29
12992840 | HMC-11 | start gathering for flow 10 (from NI 0) to child HMC-15 (to NI 0) at timestep 29
12992840 | HMC-13 | start gathering for flow 4 (from NI 0) to child HMC-12 (to NI 0) at timestep 29
13105745 | HMC-3 | finishes gather for flow 15 (from NI 0) to child HMC-7 (to NI 0) at timestep 29
13105745 | HMC-9 | finishes gather for flow 8 (from NI 0) to child HMC-13 (to NI 0) at timestep 29
13105745 | HMC-14 | finishes gather for flow 5 (from NI 0) to child HMC-10 (to NI 0) at timestep 29
13105745 | HMC-0 | finishes gather for flow 3 (from NI 0) to child HMC-1 (to NI 0) at timestep 29
13105745 | HMC-1 | finishes gather for flow 7 (from NI 0) to child HMC-2 (to NI 0) at timestep 29
13105745 | HMC-8 | finishes gather for flow 1 (from NI 0) to child HMC-4 (to NI 0) at timestep 29
13105745 | HMC-11 | finishes gather for flow 10 (from NI 0) to child HMC-15 (to NI 0) at timestep 29
13105745 | HMC-13 | finishes gather for flow 4 (from NI 0) to child HMC-12 (to NI 0) at timestep 29
13105746 | HMC-7 | finishes gather for flow 14 (from NI 0) to child HMC-11 (to NI 0) at timestep 29
13105746 | HMC-10 | finishes gather for flow 9 (from NI 0) to child HMC-6 (to NI 0) at timestep 29
13105746 | HMC-6 | finishes gather for flow 13 (from NI 0) to child HMC-5 (to NI 0) at timestep 29
13105746 | HMC-15 | finishes gather for flow 6 (from NI 0) to child HMC-14 (to NI 0) at timestep 29
13105746 | HMC-12 | finishes gather for flow 0 (from NI 0) to child HMC-8 (to NI 0) at timestep 29
13105746 | HMC-4 | finishes gather for flow 2 (from NI 0) to child HMC-0 (to NI 0) at timestep 29
13105746 | HMC-5 | finishes gather for flow 12 (from NI 0) to child HMC-9 (to NI 0) at timestep 29
13105746 | HMC-2 | finishes gather for flow 11 (from NI 0) to child HMC-3 (to NI 0) at timestep 29
13106799 | HMC-7 | receives full gather for flow 15 from parent HMC-3
13106799 | HMC-10 | receives full gather for flow 5 from parent HMC-14
13106799 | HMC-6 | receives full gather for flow 9 from parent HMC-10
13106799 | HMC-15 | receives full gather for flow 10 from parent HMC-11
13106799 | HMC-12 | receives full gather for flow 4 from parent HMC-13
13106799 | HMC-4 | receives full gather for flow 1 from parent HMC-8
13106799 | HMC-5 | receives full gather for flow 13 from parent HMC-6
13106799 | HMC-2 | receives full gather for flow 7 from parent HMC-1
13106799 | HMC-3 | receives full gather for flow 11 from parent HMC-2
13106799 | HMC-9 | receives full gather for flow 12 from parent HMC-5
13106799 | HMC-14 | receives full gather for flow 6 from parent HMC-15
13106799 | HMC-1 | receives full gather for flow 3 from parent HMC-0
13106799 | HMC-0 | receives full gather for flow 2 from parent HMC-4
13106799 | HMC-8 | receives full gather for flow 0 from parent HMC-12
13106799 | HMC-11 | receives full gather for flow 14 from parent HMC-7
13106799 | HMC-13 | receives full gather for flow 8 from parent HMC-9
13106800 | HMC-7 | start gathering for flow 15 (from NI 0) to child HMC-11 (to NI 0) at timestep 30
13106800 | HMC-10 | start gathering for flow 5 (from NI 0) to child HMC-6 (to NI 0) at timestep 30
13106800 | HMC-6 | start gathering for flow 9 (from NI 0) to child HMC-5 (to NI 0) at timestep 30
13106800 | HMC-15 | start gathering for flow 10 (from NI 0) to child HMC-14 (to NI 0) at timestep 30
13106800 | HMC-12 | start gathering for flow 4 (from NI 0) to child HMC-8 (to NI 0) at timestep 30
13106800 | HMC-4 | start gathering for flow 1 (from NI 0) to child HMC-0 (to NI 0) at timestep 30
13106800 | HMC-5 | start gathering for flow 13 (from NI 0) to child HMC-9 (to NI 0) at timestep 30
13106800 | HMC-2 | start gathering for flow 7 (from NI 0) to child HMC-3 (to NI 0) at timestep 30
13106800 | HMC-3 | start gathering for flow 11 (from NI 0) to child HMC-7 (to NI 0) at timestep 30
13106800 | HMC-9 | start gathering for flow 12 (from NI 0) to child HMC-13 (to NI 0) at timestep 30
13106800 | HMC-14 | start gathering for flow 6 (from NI 0) to child HMC-10 (to NI 0) at timestep 30
13106800 | HMC-1 | start gathering for flow 3 (from NI 0) to child HMC-2 (to NI 0) at timestep 30
13106800 | HMC-0 | start gathering for flow 2 (from NI 0) to child HMC-1 (to NI 0) at timestep 30
13106800 | HMC-8 | start gathering for flow 0 (from NI 0) to child HMC-4 (to NI 0) at timestep 30
13106800 | HMC-11 | start gathering for flow 14 (from NI 0) to child HMC-15 (to NI 0) at timestep 30
13106800 | HMC-13 | start gathering for flow 8 (from NI 0) to child HMC-12 (to NI 0) at timestep 30
13219705 | HMC-3 | finishes gather for flow 11 (from NI 0) to child HMC-7 (to NI 0) at timestep 30
13219705 | HMC-3 | finishes all-gather (after send-gather-message)
13219705 | HMC-9 | finishes gather for flow 12 (from NI 0) to child HMC-13 (to NI 0) at timestep 30
13219705 | HMC-9 | finishes all-gather (after send-gather-message)
13219705 | HMC-14 | finishes gather for flow 6 (from NI 0) to child HMC-10 (to NI 0) at timestep 30
13219705 | HMC-14 | finishes all-gather (after send-gather-message)
13219705 | HMC-0 | finishes gather for flow 2 (from NI 0) to child HMC-1 (to NI 0) at timestep 30
13219705 | HMC-0 | finishes all-gather (after send-gather-message)
13219705 | HMC-1 | finishes gather for flow 3 (from NI 0) to child HMC-2 (to NI 0) at timestep 30
13219705 | HMC-1 | finishes all-gather (after send-gather-message)
13219705 | HMC-8 | finishes gather for flow 0 (from NI 0) to child HMC-4 (to NI 0) at timestep 30
13219705 | HMC-8 | finishes all-gather (after send-gather-message)
13219705 | HMC-11 | finishes gather for flow 14 (from NI 0) to child HMC-15 (to NI 0) at timestep 30
13219705 | HMC-11 | finishes all-gather (after send-gather-message)
13219705 | HMC-13 | finishes gather for flow 8 (from NI 0) to child HMC-12 (to NI 0) at timestep 30
13219705 | HMC-13 | finishes all-gather (after send-gather-message)
13219706 | HMC-7 | finishes gather for flow 15 (from NI 0) to child HMC-11 (to NI 0) at timestep 30
13219706 | HMC-7 | finishes all-gather (after send-gather-message)
13219706 | HMC-10 | finishes gather for flow 5 (from NI 0) to child HMC-6 (to NI 0) at timestep 30
13219706 | HMC-10 | finishes all-gather (after send-gather-message)
13219706 | HMC-6 | finishes gather for flow 9 (from NI 0) to child HMC-5 (to NI 0) at timestep 30
13219706 | HMC-6 | finishes all-gather (after send-gather-message)
13219706 | HMC-15 | finishes gather for flow 10 (from NI 0) to child HMC-14 (to NI 0) at timestep 30
13219706 | HMC-15 | finishes all-gather (after send-gather-message)
13219706 | HMC-12 | finishes gather for flow 4 (from NI 0) to child HMC-8 (to NI 0) at timestep 30
13219706 | HMC-12 | finishes all-gather (after send-gather-message)
13219706 | HMC-4 | finishes gather for flow 1 (from NI 0) to child HMC-0 (to NI 0) at timestep 30
13219706 | HMC-4 | finishes all-gather (after send-gather-message)
13219706 | HMC-5 | finishes gather for flow 13 (from NI 0) to child HMC-9 (to NI 0) at timestep 30
13219706 | HMC-5 | finishes all-gather (after send-gather-message)
13219706 | HMC-2 | finishes gather for flow 7 (from NI 0) to child HMC-3 (to NI 0) at timestep 30
13219706 | HMC-2 | finishes all-gather (after send-gather-message)
13220759 | HMC-7 | receives full gather for flow 11 from parent HMC-3
13220759 | HMC-7 | finishes all-gather (after recieving all-gather)
13220759 | HMC-10 | receives full gather for flow 6 from parent HMC-14
13220759 | HMC-10 | finishes all-gather (after recieving all-gather)
13220759 | HMC-6 | receives full gather for flow 5 from parent HMC-10
13220759 | HMC-6 | finishes all-gather (after recieving all-gather)
13220759 | HMC-15 | receives full gather for flow 14 from parent HMC-11
13220759 | HMC-15 | finishes all-gather (after recieving all-gather)
13220759 | HMC-12 | receives full gather for flow 8 from parent HMC-13
13220759 | HMC-12 | finishes all-gather (after recieving all-gather)
13220759 | HMC-4 | receives full gather for flow 0 from parent HMC-8
13220759 | HMC-4 | finishes all-gather (after recieving all-gather)
13220759 | HMC-5 | receives full gather for flow 9 from parent HMC-6
13220759 | HMC-5 | finishes all-gather (after recieving all-gather)
13220759 | HMC-2 | receives full gather for flow 3 from parent HMC-1
13220759 | HMC-2 | finishes all-gather (after recieving all-gather)
13220759 | HMC-3 | receives full gather for flow 7 from parent HMC-2
13220759 | HMC-3 | finishes all-gather (after recieving all-gather)
13220759 | HMC-9 | receives full gather for flow 13 from parent HMC-5
13220759 | HMC-9 | finishes all-gather (after recieving all-gather)
13220759 | HMC-14 | receives full gather for flow 10 from parent HMC-15
13220759 | HMC-14 | finishes all-gather (after recieving all-gather)
13220759 | HMC-1 | receives full gather for flow 2 from parent HMC-0
13220759 | HMC-1 | finishes all-gather (after recieving all-gather)
13220759 | HMC-0 | receives full gather for flow 1 from parent HMC-4
13220759 | HMC-0 | finishes all-gather (after recieving all-gather)
13220759 | HMC-8 | receives full gather for flow 4 from parent HMC-12
13220759 | HMC-8 | finishes all-gather (after recieving all-gather)
13220759 | HMC-11 | receives full gather for flow 15 from parent HMC-7
13220759 | HMC-11 | finishes all-gather (after recieving all-gather)
13220759 | HMC-13 | receives full gather for flow 12 from parent HMC-9
13220759 | HMC-13 | finishes all-gather (after recieving all-gather)

======== Simulation Summary ========
Training epoch runtime: 13220908 cycles
 - computation: 9601062 cycles (72.62%)
 - allreduce: 3619846 cycles (27.38%)
     - overlapped computation: 200880 cycles (1.52%)
     - pure communication: 3418966 cycles (25.86%)
Total number of messages: 3213120

