====================================================
******************* SCALE SIM **********************
====================================================
Array Size:    32 x 32
SRAM IFMAP:    524288
SRAM Filter:   524288
SRAM OFMAP:    262144
CSV file path: /home/farabi/study/research/multitree-sim/src/SCALE-Sim/topologies/mlperf/NCF_recommendation.csv
Dataflow:      os
====================================================


Model loading ...
Warn: incomplete model layer description: line 1
 -- Neural Collaborative Filtering(Recommendation),

Model loading finished

NN model size: 11042704 parameters

Start a training epoch ...

Feed-Forward ...

Commencing run for MF_Embedding_user
Average utilization : 0.7811905600802858 %
Cycles for compute  : 138008 cycles

Commencing run for MF_Embedding_item
Average utilization : 0.7811905600802858 %
Cycles for compute  : 138008 cycles

Commencing run for MLP_Embedding_user
Average utilization : 3.123947247357478 %
Cycles for compute  : 138032 cycles

Commencing run for MLP_Embedding_item
Average utilization : 3.123947247357478 %
Cycles for compute  : 138032 cycles

Commencing run for MLP_FC1
Average utilization : 1.5953947368421053 %
Cycles for compute  : 96 cycles

Commencing run for MLP_FC2
Average utilization : 0.8144946808510639 %
Cycles for compute  : 48 cycles

Commencing run for MLP_FC3
Average utilization : 0.4245923913043478 %
Cycles for compute  : 24 cycles

Commencing run for Predict_FC
Average utilization : 0.09765625 %
Cycles for compute  : 17 cycles

Backward Propagation ...

Commencing back-propagation run for Predict_FC
 - compute input-gradient:
 -- input-gradient: read cycles: 16, write cycles: 2
 - compute filter-gradient:
 -- filter-gradient: read cycles: 16, write cycles: 32
 - input-gradient-cycles: 16, uitl: 0.006103515625 %
 - filter-gradent-cycles: 32, uitl: 0.006103515625 %
Average utilization : 0.006103515625 %
Cycles for compute  : 48 cycles


Commencing back-propagation run for MLP_FC3
 - compute input-gradient:
 -- input-gradient: read cycles: 23, write cycles: 2
 - compute filter-gradient:
 -- filter-gradient: read cycles: 16, write cycles: 32
 - input-gradient-cycles: 23, uitl: 0.15285326086956522 %
 - filter-gradent-cycles: 32, uitl: 0.048828125 %
Average utilization : 0.11017628205128205 %
Cycles for compute  : 55 cycles


Commencing back-propagation run for MLP_FC2
 - compute input-gradient:
 -- input-gradient: read cycles: 47, write cycles: 2
 - compute filter-gradient:
 -- filter-gradient: read cycles: 32, write cycles: 64
 - input-gradient-cycles: 47, uitl: 0.2825797872340426 %
 - filter-gradent-cycles: 64, uitl: 0.048828125 %
Average utilization : 0.1878955696202532 %
Cycles for compute  : 111 cycles


Commencing back-propagation run for MLP_FC1
 - compute input-gradient:
 -- input-gradient: read cycles: 95, write cycles: 3
 - compute filter-gradient:
 -- filter-gradient: read cycles: 33, write cycles: 96
 - input-gradient-cycles: 95, uitl: 1.5953947368421053 %
 - filter-gradent-cycles: 96, uitl: 0.3728693181818182 %
Average utilization : 1.28021240234375 %
Cycles for compute  : 191 cycles


Commencing back-propagation run for MLP_Embedding_item
 - compute input-gradient:
 -- input-gradient: read cycles: 138031, write cycles: 4314
 - compute filter-gradient:
 -- filter-gradient: read cycles: 4343, write cycles: 138032
 - input-gradient-cycles: 138031, uitl: 3.12421326549833 %
 - filter-gradent-cycles: 138032, uitl: 99.06080906055722 %
Average utilization : 6.050679021450546 %
Cycles for compute  : 276063 cycles


Commencing back-propagation run for MLP_Embedding_user
 - compute input-gradient:
 -- input-gradient: read cycles: 138031, write cycles: 4314
 - compute filter-gradient:
 -- filter-gradient: read cycles: 4343, write cycles: 138032
 - input-gradient-cycles: 138031, uitl: 3.12421326549833 %
 - filter-gradent-cycles: 138032, uitl: 99.06080906055722 %
Average utilization : 6.050679021450546 %
Cycles for compute  : 276063 cycles


Commencing back-propagation run for MF_Embedding_item
 - compute input-gradient:
 -- input-gradient: read cycles: 34527, write cycles: 4314
 - compute filter-gradient:
 -- filter-gradient: read cycles: 4343, write cycles: 138032
 - input-gradient-cycles: 34527, uitl: 3.1215154082312395 %
 - filter-gradent-cycles: 138032, uitl: 24.75445400644716 %
Average utilization : 5.538594192179058 %
Cycles for compute  : 172559 cycles


Commencing back-propagation run for MF_Embedding_user
 - compute input-gradient:
 -- input-gradient: read cycles: 34527, write cycles: 4314
 - compute filter-gradient:
 -- filter-gradient: read cycles: 4343, write cycles: 138032
 - input-gradient-cycles: 34527, uitl: 3.1215154082312395 %
 - filter-gradent-cycles: 138032, uitl: 24.75445400644716 %
Average utilization : 5.538594192179058 %
Cycles for compute  : 172559 cycles

0 | HMC-13 | starts training, computation state: training, communication state: idle
0 | HMC-7 | starts training, computation state: training, communication state: idle
0 | HMC-6 | starts training, computation state: training, communication state: idle
0 | HMC-4 | starts training, computation state: training, communication state: idle
0 | HMC-5 | starts training, computation state: training, communication state: idle
0 | HMC-2 | starts training, computation state: training, communication state: idle
0 | HMC-3 | starts training, computation state: training, communication state: idle
0 | HMC-11 | starts training, computation state: training, communication state: idle
0 | HMC-12 | starts training, computation state: training, communication state: idle
0 | HMC-15 | starts training, computation state: training, communication state: idle
0 | HMC-9 | starts training, computation state: training, communication state: idle
0 | HMC-1 | starts training, computation state: training, communication state: idle
0 | HMC-0 | starts training, computation state: training, communication state: idle
0 | HMC-8 | starts training, computation state: training, communication state: idle
0 | HMC-10 | starts training, computation state: training, communication state: idle
0 | HMC-14 | starts training, computation state: training, communication state: idle
1449914 | HMC-13 finishes training, computation sate: idle, communication state: idle
1449914 | HMC-7 finishes training, computation sate: idle, communication state: idle
1449914 | HMC-6 finishes training, computation sate: idle, communication state: idle
1449914 | HMC-4 finishes training, computation sate: idle, communication state: idle
1449914 | HMC-5 finishes training, computation sate: idle, communication state: idle
1449914 | HMC-2 finishes training, computation sate: idle, communication state: idle
1449914 | HMC-3 finishes training, computation sate: idle, communication state: idle
1449914 | HMC-12 finishes training, computation sate: idle, communication state: idle
1449914 | HMC-15 finishes training, computation sate: idle, communication state: idle
1449914 | HMC-10 finishes training, computation sate: idle, communication state: idle
1449914 | HMC-9 finishes training, computation sate: idle, communication state: idle
1449914 | HMC-1 finishes training, computation sate: idle, communication state: idle
1449914 | HMC-0 finishes training, computation sate: idle, communication state: idle
1449914 | HMC-11 finishes training, computation sate: idle, communication state: idle
1449914 | HMC-8 finishes training, computation sate: idle, communication state: idle
1449914 | HMC-14 finishes training, computation sate: idle, communication state: idle
1449915 | HMC-13 | starts aggregation, computation state: aggregating, communication state: idle
1449915 | HMC-7 | starts aggregation, computation state: aggregating, communication state: idle
1449915 | HMC-6 | starts aggregation, computation state: aggregating, communication state: idle
1449915 | HMC-4 | starts aggregation, computation state: aggregating, communication state: idle
1449915 | HMC-5 | starts aggregation, computation state: aggregating, communication state: idle
1449915 | HMC-2 | starts aggregation, computation state: aggregating, communication state: idle
1449915 | HMC-3 | starts aggregation, computation state: aggregating, communication state: idle
1449915 | HMC-12 | starts aggregation, computation state: aggregating, communication state: idle
1449915 | HMC-15 | starts aggregation, computation state: aggregating, communication state: idle
1449915 | HMC-9 | starts aggregation, computation state: aggregating, communication state: idle
1449915 | HMC-1 | starts aggregation, computation state: aggregating, communication state: idle
1449915 | HMC-0 | starts aggregation, computation state: aggregating, communication state: idle
1449915 | HMC-11 | starts aggregation, computation state: aggregating, communication state: idle
1449915 | HMC-10 | starts aggregation, computation state: aggregating, communication state: idle
1449915 | HMC-8 | starts aggregation, computation state: aggregating, communication state: idle
1449915 | HMC-14 | starts aggregation, computation state: aggregating, communication state: idle
1795003 | HMC-13 | finishes aggregation , computation state: idle, communication state: reduce-scatter
1795003 | HMC-7 | finishes aggregation , computation state: idle, communication state: reduce-scatter
1795003 | HMC-6 | finishes aggregation , computation state: idle, communication state: reduce-scatter
1795003 | HMC-4 | finishes aggregation , computation state: idle, communication state: reduce-scatter
1795003 | HMC-5 | finishes aggregation , computation state: idle, communication state: reduce-scatter
1795003 | HMC-2 | finishes aggregation , computation state: idle, communication state: reduce-scatter
1795003 | HMC-3 | finishes aggregation , computation state: idle, communication state: reduce-scatter
1795003 | HMC-12 | finishes aggregation , computation state: idle, communication state: reduce-scatter
1795003 | HMC-15 | finishes aggregation , computation state: idle, communication state: reduce-scatter
1795003 | HMC-9 | finishes aggregation , computation state: idle, communication state: reduce-scatter
1795003 | HMC-1 | finishes aggregation , computation state: idle, communication state: reduce-scatter
1795003 | HMC-0 | finishes aggregation , computation state: idle, communication state: reduce-scatter
1795003 | HMC-11 | finishes aggregation , computation state: idle, communication state: reduce-scatter
1795003 | HMC-10 | finishes aggregation , computation state: idle, communication state: reduce-scatter
1795003 | HMC-8 | finishes aggregation , computation state: idle, communication state: reduce-scatter
1795003 | HMC-14 | finishes aggregation , computation state: idle, communication state: reduce-scatter
1795004 | HMC-13 | start reducing for flow 12 (from NI 0) to parent HMC-9 (to NI 0) at timestep 0
1795004 | HMC-7 | start reducing for flow 11 (from NI 0) to parent HMC-3 (to NI 0) at timestep 0
1795004 | HMC-6 | start reducing for flow 5 (from NI 0) to parent HMC-10 (to NI 0) at timestep 0
1795004 | HMC-4 | start reducing for flow 0 (from NI 0) to parent HMC-8 (to NI 0) at timestep 0
1795004 | HMC-5 | start reducing for flow 9 (from NI 0) to parent HMC-6 (to NI 0) at timestep 0
1795004 | HMC-2 | start reducing for flow 3 (from NI 0) to parent HMC-1 (to NI 0) at timestep 0
1795004 | HMC-3 | start reducing for flow 7 (from NI 0) to parent HMC-2 (to NI 0) at timestep 0
1795004 | HMC-12 | start reducing for flow 8 (from NI 0) to parent HMC-13 (to NI 0) at timestep 0
1795004 | HMC-15 | start reducing for flow 14 (from NI 0) to parent HMC-11 (to NI 0) at timestep 0
1795004 | HMC-9 | start reducing for flow 13 (from NI 0) to parent HMC-5 (to NI 0) at timestep 0
1795004 | HMC-1 | start reducing for flow 2 (from NI 0) to parent HMC-0 (to NI 0) at timestep 0
1795004 | HMC-0 | start reducing for flow 1 (from NI 0) to parent HMC-4 (to NI 0) at timestep 0
1795004 | HMC-11 | start reducing for flow 15 (from NI 0) to parent HMC-7 (to NI 0) at timestep 0
1795004 | HMC-10 | start reducing for flow 6 (from NI 0) to parent HMC-14 (to NI 0) at timestep 0
1795004 | HMC-8 | start reducing for flow 4 (from NI 0) to parent HMC-12 (to NI 0) at timestep 0
1795004 | HMC-14 | start reducing for flow 10 (from NI 0) to parent HMC-15 (to NI 0) at timestep 0
1977439 | HMC-4 | finishes reducing for flow 0 (from NI 0) to parent HMC-8 (to NI 0) at timestep 0
1977439 | HMC-5 | finishes reducing for flow 9 (from NI 0) to parent HMC-6 (to NI 0) at timestep 0
1977439 | HMC-2 | finishes reducing for flow 3 (from NI 0) to parent HMC-1 (to NI 0) at timestep 0
1977439 | HMC-3 | finishes reducing for flow 7 (from NI 0) to parent HMC-2 (to NI 0) at timestep 0
1977439 | HMC-11 | finishes reducing for flow 15 (from NI 0) to parent HMC-7 (to NI 0) at timestep 0
1977439 | HMC-12 | finishes reducing for flow 8 (from NI 0) to parent HMC-13 (to NI 0) at timestep 0
1977439 | HMC-15 | finishes reducing for flow 14 (from NI 0) to parent HMC-11 (to NI 0) at timestep 0
1977439 | HMC-9 | finishes reducing for flow 13 (from NI 0) to parent HMC-5 (to NI 0) at timestep 0
1977439 | HMC-0 | finishes reducing for flow 1 (from NI 0) to parent HMC-4 (to NI 0) at timestep 0
1977439 | HMC-1 | finishes reducing for flow 2 (from NI 0) to parent HMC-0 (to NI 0) at timestep 0
1977439 | HMC-8 | finishes reducing for flow 4 (from NI 0) to parent HMC-12 (to NI 0) at timestep 0
1977439 | HMC-10 | finishes reducing for flow 6 (from NI 0) to parent HMC-14 (to NI 0) at timestep 0
1977439 | HMC-14 | finishes reducing for flow 10 (from NI 0) to parent HMC-15 (to NI 0) at timestep 0
1977440 | HMC-13 | finishes reducing for flow 12 (from NI 0) to parent HMC-9 (to NI 0) at timestep 0
1977440 | HMC-7 | finishes reducing for flow 11 (from NI 0) to parent HMC-3 (to NI 0) at timestep 0
1977440 | HMC-6 | finishes reducing for flow 5 (from NI 0) to parent HMC-10 (to NI 0) at timestep 0
1978493 | HMC-13 | receives full reduce for flow 8 from child HMC-12
1978493 | HMC-7 | receives full reduce for flow 15 from child HMC-11
1978493 | HMC-6 | receives full reduce for flow 9 from child HMC-5
1978493 | HMC-4 | receives full reduce for flow 1 from child HMC-0
1978493 | HMC-5 | receives full reduce for flow 13 from child HMC-9
1978493 | HMC-2 | receives full reduce for flow 7 from child HMC-3
1978493 | HMC-3 | receives full reduce for flow 11 from child HMC-7
1978493 | HMC-11 | receives full reduce for flow 14 from child HMC-15
1978493 | HMC-12 | receives full reduce for flow 4 from child HMC-8
1978493 | HMC-15 | receives full reduce for flow 10 from child HMC-14
1978493 | HMC-9 | receives full reduce for flow 12 from child HMC-13
1978493 | HMC-1 | receives full reduce for flow 3 from child HMC-2
1978493 | HMC-0 | receives full reduce for flow 2 from child HMC-1
1978493 | HMC-8 | receives full reduce for flow 0 from child HMC-4
1978493 | HMC-10 | receives full reduce for flow 5 from child HMC-6
1978493 | HMC-14 | receives full reduce for flow 6 from child HMC-10
1978494 | HMC-13 | starts aggregation, computation state: aggregating, communication state: reduce-scatter
1978494 | HMC-7 | starts aggregation, computation state: aggregating, communication state: reduce-scatter
1978494 | HMC-6 | starts aggregation, computation state: aggregating, communication state: reduce-scatter
1978494 | HMC-4 | starts aggregation, computation state: aggregating, communication state: reduce-scatter
1978494 | HMC-5 | starts aggregation, computation state: aggregating, communication state: reduce-scatter
1978494 | HMC-2 | starts aggregation, computation state: aggregating, communication state: reduce-scatter
1978494 | HMC-3 | starts aggregation, computation state: aggregating, communication state: reduce-scatter
1978494 | HMC-12 | starts aggregation, computation state: aggregating, communication state: reduce-scatter
1978494 | HMC-15 | starts aggregation, computation state: aggregating, communication state: reduce-scatter
1978494 | HMC-10 | starts aggregation, computation state: aggregating, communication state: reduce-scatter
1978494 | HMC-9 | starts aggregation, computation state: aggregating, communication state: reduce-scatter
1978494 | HMC-1 | starts aggregation, computation state: aggregating, communication state: reduce-scatter
1978494 | HMC-0 | starts aggregation, computation state: aggregating, communication state: reduce-scatter
1978494 | HMC-11 | starts aggregation, computation state: aggregating, communication state: reduce-scatter
1978494 | HMC-8 | starts aggregation, computation state: aggregating, communication state: reduce-scatter
1978494 | HMC-14 | starts aggregation, computation state: aggregating, communication state: reduce-scatter
2000062 | HMC-13 | clear pending aggregation for flow 8 from child HMC-12
2000062 | HMC-13 | finishes aggregation , computation state: idle, communication state: reduce-scatter
2000062 | HMC-7 | clear pending aggregation for flow 15 from child HMC-11
2000062 | HMC-7 | finishes aggregation , computation state: idle, communication state: reduce-scatter
2000062 | HMC-6 | clear pending aggregation for flow 9 from child HMC-5
2000062 | HMC-6 | finishes aggregation , computation state: idle, communication state: reduce-scatter
2000062 | HMC-4 | clear pending aggregation for flow 1 from child HMC-0
2000062 | HMC-4 | finishes aggregation , computation state: idle, communication state: reduce-scatter
2000062 | HMC-5 | clear pending aggregation for flow 13 from child HMC-9
2000062 | HMC-5 | finishes aggregation , computation state: idle, communication state: reduce-scatter
2000062 | HMC-2 | clear pending aggregation for flow 7 from child HMC-3
2000062 | HMC-2 | finishes aggregation , computation state: idle, communication state: reduce-scatter
2000062 | HMC-3 | clear pending aggregation for flow 11 from child HMC-7
2000062 | HMC-3 | finishes aggregation , computation state: idle, communication state: reduce-scatter
2000062 | HMC-12 | clear pending aggregation for flow 4 from child HMC-8
2000062 | HMC-12 | finishes aggregation , computation state: idle, communication state: reduce-scatter
2000062 | HMC-15 | clear pending aggregation for flow 10 from child HMC-14
2000062 | HMC-15 | finishes aggregation , computation state: idle, communication state: reduce-scatter
2000062 | HMC-9 | clear pending aggregation for flow 12 from child HMC-13
2000062 | HMC-9 | finishes aggregation , computation state: idle, communication state: reduce-scatter
2000062 | HMC-1 | clear pending aggregation for flow 3 from child HMC-2
2000062 | HMC-1 | finishes aggregation , computation state: idle, communication state: reduce-scatter
2000062 | HMC-0 | clear pending aggregation for flow 2 from child HMC-1
2000062 | HMC-0 | finishes aggregation , computation state: idle, communication state: reduce-scatter
2000062 | HMC-11 | clear pending aggregation for flow 14 from child HMC-15
2000062 | HMC-11 | finishes aggregation , computation state: idle, communication state: reduce-scatter
2000062 | HMC-10 | clear pending aggregation for flow 5 from child HMC-6
2000062 | HMC-10 | finishes aggregation , computation state: idle, communication state: reduce-scatter
2000062 | HMC-8 | clear pending aggregation for flow 0 from child HMC-4
2000062 | HMC-8 | finishes aggregation , computation state: idle, communication state: reduce-scatter
2000062 | HMC-14 | clear pending aggregation for flow 6 from child HMC-10
2000062 | HMC-14 | finishes aggregation , computation state: idle, communication state: reduce-scatter
2000063 | HMC-13 | start reducing for flow 8 (from NI 0) to parent HMC-9 (to NI 0) at timestep 1
2000063 | HMC-7 | start reducing for flow 15 (from NI 0) to parent HMC-3 (to NI 0) at timestep 1
2000063 | HMC-6 | start reducing for flow 9 (from NI 0) to parent HMC-10 (to NI 0) at timestep 1
2000063 | HMC-4 | start reducing for flow 1 (from NI 0) to parent HMC-8 (to NI 0) at timestep 1
2000063 | HMC-5 | start reducing for flow 13 (from NI 0) to parent HMC-6 (to NI 0) at timestep 1
2000063 | HMC-2 | start reducing for flow 7 (from NI 0) to parent HMC-1 (to NI 0) at timestep 1
2000063 | HMC-3 | start reducing for flow 11 (from NI 0) to parent HMC-2 (to NI 0) at timestep 1
2000063 | HMC-12 | start reducing for flow 4 (from NI 0) to parent HMC-13 (to NI 0) at timestep 1
2000063 | HMC-15 | start reducing for flow 10 (from NI 0) to parent HMC-11 (to NI 0) at timestep 1
2000063 | HMC-9 | start reducing for flow 12 (from NI 0) to parent HMC-5 (to NI 0) at timestep 1
2000063 | HMC-1 | start reducing for flow 3 (from NI 0) to parent HMC-0 (to NI 0) at timestep 1
2000063 | HMC-0 | start reducing for flow 2 (from NI 0) to parent HMC-4 (to NI 0) at timestep 1
2000063 | HMC-11 | start reducing for flow 14 (from NI 0) to parent HMC-7 (to NI 0) at timestep 1
2000063 | HMC-10 | start reducing for flow 5 (from NI 0) to parent HMC-14 (to NI 0) at timestep 1
2000063 | HMC-8 | start reducing for flow 0 (from NI 0) to parent HMC-12 (to NI 0) at timestep 1
2000063 | HMC-14 | start reducing for flow 6 (from NI 0) to parent HMC-15 (to NI 0) at timestep 1
2182498 | HMC-4 | finishes reducing for flow 1 (from NI 0) to parent HMC-8 (to NI 0) at timestep 1
2182498 | HMC-5 | finishes reducing for flow 13 (from NI 0) to parent HMC-6 (to NI 0) at timestep 1
2182498 | HMC-2 | finishes reducing for flow 7 (from NI 0) to parent HMC-1 (to NI 0) at timestep 1
2182498 | HMC-3 | finishes reducing for flow 11 (from NI 0) to parent HMC-2 (to NI 0) at timestep 1
2182498 | HMC-11 | finishes reducing for flow 14 (from NI 0) to parent HMC-7 (to NI 0) at timestep 1
2182498 | HMC-12 | finishes reducing for flow 4 (from NI 0) to parent HMC-13 (to NI 0) at timestep 1
2182498 | HMC-15 | finishes reducing for flow 10 (from NI 0) to parent HMC-11 (to NI 0) at timestep 1
2182498 | HMC-9 | finishes reducing for flow 12 (from NI 0) to parent HMC-5 (to NI 0) at timestep 1
2182498 | HMC-0 | finishes reducing for flow 2 (from NI 0) to parent HMC-4 (to NI 0) at timestep 1
2182498 | HMC-1 | finishes reducing for flow 3 (from NI 0) to parent HMC-0 (to NI 0) at timestep 1
2182498 | HMC-8 | finishes reducing for flow 0 (from NI 0) to parent HMC-12 (to NI 0) at timestep 1
2182498 | HMC-10 | finishes reducing for flow 5 (from NI 0) to parent HMC-14 (to NI 0) at timestep 1
2182498 | HMC-14 | finishes reducing for flow 6 (from NI 0) to parent HMC-15 (to NI 0) at timestep 1
2182499 | HMC-13 | finishes reducing for flow 8 (from NI 0) to parent HMC-9 (to NI 0) at timestep 1
2182499 | HMC-7 | finishes reducing for flow 15 (from NI 0) to parent HMC-3 (to NI 0) at timestep 1
2182499 | HMC-6 | finishes reducing for flow 9 (from NI 0) to parent HMC-10 (to NI 0) at timestep 1
2183552 | HMC-13 | receives full reduce for flow 4 from child HMC-12
2183552 | HMC-7 | receives full reduce for flow 14 from child HMC-11
2183552 | HMC-6 | receives full reduce for flow 13 from child HMC-5
2183552 | HMC-4 | receives full reduce for flow 2 from child HMC-0
2183552 | HMC-5 | receives full reduce for flow 12 from child HMC-9
2183552 | HMC-2 | receives full reduce for flow 11 from child HMC-3
2183552 | HMC-3 | receives full reduce for flow 15 from child HMC-7
2183552 | HMC-11 | receives full reduce for flow 10 from child HMC-15
2183552 | HMC-12 | receives full reduce for flow 0 from child HMC-8
2183552 | HMC-15 | receives full reduce for flow 6 from child HMC-14
2183552 | HMC-9 | receives full reduce for flow 8 from child HMC-13
2183552 | HMC-1 | receives full reduce for flow 7 from child HMC-2
2183552 | HMC-0 | receives full reduce for flow 3 from child HMC-1
2183552 | HMC-8 | receives full reduce for flow 1 from child HMC-4
2183552 | HMC-10 | receives full reduce for flow 9 from child HMC-6
2183552 | HMC-14 | receives full reduce for flow 5 from child HMC-10
2183553 | HMC-13 | starts aggregation, computation state: aggregating, communication state: reduce-scatter
2183553 | HMC-7 | starts aggregation, computation state: aggregating, communication state: reduce-scatter
2183553 | HMC-6 | starts aggregation, computation state: aggregating, communication state: reduce-scatter
2183553 | HMC-4 | starts aggregation, computation state: aggregating, communication state: reduce-scatter
2183553 | HMC-5 | starts aggregation, computation state: aggregating, communication state: reduce-scatter
2183553 | HMC-2 | starts aggregation, computation state: aggregating, communication state: reduce-scatter
2183553 | HMC-3 | starts aggregation, computation state: aggregating, communication state: reduce-scatter
2183553 | HMC-12 | starts aggregation, computation state: aggregating, communication state: reduce-scatter
2183553 | HMC-15 | starts aggregation, computation state: aggregating, communication state: reduce-scatter
2183553 | HMC-10 | starts aggregation, computation state: aggregating, communication state: reduce-scatter
2183553 | HMC-9 | starts aggregation, computation state: aggregating, communication state: reduce-scatter
2183553 | HMC-1 | starts aggregation, computation state: aggregating, communication state: reduce-scatter
2183553 | HMC-0 | starts aggregation, computation state: aggregating, communication state: reduce-scatter
2183553 | HMC-11 | starts aggregation, computation state: aggregating, communication state: reduce-scatter
2183553 | HMC-8 | starts aggregation, computation state: aggregating, communication state: reduce-scatter
2183553 | HMC-14 | starts aggregation, computation state: aggregating, communication state: reduce-scatter
2205121 | HMC-13 | clear pending aggregation for flow 4 from child HMC-12
2205121 | HMC-13 | finishes aggregation , computation state: idle, communication state: reduce-scatter
2205121 | HMC-7 | clear pending aggregation for flow 14 from child HMC-11
2205121 | HMC-7 | finishes aggregation , computation state: idle, communication state: reduce-scatter
2205121 | HMC-6 | clear pending aggregation for flow 13 from child HMC-5
2205121 | HMC-6 | finishes aggregation , computation state: idle, communication state: reduce-scatter
2205121 | HMC-4 | clear pending aggregation for flow 2 from child HMC-0
2205121 | HMC-4 | finishes aggregation , computation state: idle, communication state: reduce-scatter
2205121 | HMC-5 | clear pending aggregation for flow 12 from child HMC-9
2205121 | HMC-5 | finishes aggregation , computation state: idle, communication state: reduce-scatter
2205121 | HMC-2 | clear pending aggregation for flow 11 from child HMC-3
2205121 | HMC-2 | finishes aggregation , computation state: idle, communication state: reduce-scatter
2205121 | HMC-3 | clear pending aggregation for flow 15 from child HMC-7
2205121 | HMC-3 | finishes aggregation , computation state: idle, communication state: reduce-scatter
2205121 | HMC-12 | clear pending aggregation for flow 0 from child HMC-8
2205121 | HMC-12 | finishes aggregation , computation state: idle, communication state: reduce-scatter
2205121 | HMC-15 | clear pending aggregation for flow 6 from child HMC-14
2205121 | HMC-15 | finishes aggregation , computation state: idle, communication state: reduce-scatter
2205121 | HMC-9 | clear pending aggregation for flow 8 from child HMC-13
2205121 | HMC-9 | finishes aggregation , computation state: idle, communication state: reduce-scatter
2205121 | HMC-1 | clear pending aggregation for flow 7 from child HMC-2
2205121 | HMC-1 | finishes aggregation , computation state: idle, communication state: reduce-scatter
2205121 | HMC-0 | clear pending aggregation for flow 3 from child HMC-1
2205121 | HMC-0 | finishes aggregation , computation state: idle, communication state: reduce-scatter
2205121 | HMC-11 | clear pending aggregation for flow 10 from child HMC-15
2205121 | HMC-11 | finishes aggregation , computation state: idle, communication state: reduce-scatter
2205121 | HMC-10 | clear pending aggregation for flow 9 from child HMC-6
2205121 | HMC-10 | finishes aggregation , computation state: idle, communication state: reduce-scatter
2205121 | HMC-8 | clear pending aggregation for flow 1 from child HMC-4
2205121 | HMC-8 | finishes aggregation , computation state: idle, communication state: reduce-scatter
2205121 | HMC-14 | clear pending aggregation for flow 5 from child HMC-10
2205121 | HMC-14 | finishes aggregation , computation state: idle, communication state: reduce-scatter
2205122 | HMC-13 | start reducing for flow 4 (from NI 0) to parent HMC-9 (to NI 0) at timestep 2
2205122 | HMC-7 | start reducing for flow 14 (from NI 0) to parent HMC-3 (to NI 0) at timestep 2
2205122 | HMC-6 | start reducing for flow 13 (from NI 0) to parent HMC-10 (to NI 0) at timestep 2
2205122 | HMC-4 | start reducing for flow 2 (from NI 0) to parent HMC-8 (to NI 0) at timestep 2
2205122 | HMC-5 | start reducing for flow 12 (from NI 0) to parent HMC-6 (to NI 0) at timestep 2
2205122 | HMC-2 | start reducing for flow 11 (from NI 0) to parent HMC-1 (to NI 0) at timestep 2
2205122 | HMC-3 | start reducing for flow 15 (from NI 0) to parent HMC-2 (to NI 0) at timestep 2
2205122 | HMC-12 | start reducing for flow 0 (from NI 0) to parent HMC-13 (to NI 0) at timestep 2
2205122 | HMC-15 | start reducing for flow 6 (from NI 0) to parent HMC-11 (to NI 0) at timestep 2
2205122 | HMC-9 | start reducing for flow 8 (from NI 0) to parent HMC-5 (to NI 0) at timestep 2
2205122 | HMC-1 | start reducing for flow 7 (from NI 0) to parent HMC-0 (to NI 0) at timestep 2
2205122 | HMC-0 | start reducing for flow 3 (from NI 0) to parent HMC-4 (to NI 0) at timestep 2
2205122 | HMC-11 | start reducing for flow 10 (from NI 0) to parent HMC-7 (to NI 0) at timestep 2
2205122 | HMC-10 | start reducing for flow 9 (from NI 0) to parent HMC-14 (to NI 0) at timestep 2
2205122 | HMC-8 | start reducing for flow 1 (from NI 0) to parent HMC-12 (to NI 0) at timestep 2
2205122 | HMC-14 | start reducing for flow 5 (from NI 0) to parent HMC-15 (to NI 0) at timestep 2
2387557 | HMC-4 | finishes reducing for flow 2 (from NI 0) to parent HMC-8 (to NI 0) at timestep 2
2387557 | HMC-5 | finishes reducing for flow 12 (from NI 0) to parent HMC-6 (to NI 0) at timestep 2
2387557 | HMC-2 | finishes reducing for flow 11 (from NI 0) to parent HMC-1 (to NI 0) at timestep 2
2387557 | HMC-3 | finishes reducing for flow 15 (from NI 0) to parent HMC-2 (to NI 0) at timestep 2
2387557 | HMC-11 | finishes reducing for flow 10 (from NI 0) to parent HMC-7 (to NI 0) at timestep 2
2387557 | HMC-12 | finishes reducing for flow 0 (from NI 0) to parent HMC-13 (to NI 0) at timestep 2
2387557 | HMC-15 | finishes reducing for flow 6 (from NI 0) to parent HMC-11 (to NI 0) at timestep 2
2387557 | HMC-9 | finishes reducing for flow 8 (from NI 0) to parent HMC-5 (to NI 0) at timestep 2
2387557 | HMC-0 | finishes reducing for flow 3 (from NI 0) to parent HMC-4 (to NI 0) at timestep 2
2387557 | HMC-1 | finishes reducing for flow 7 (from NI 0) to parent HMC-0 (to NI 0) at timestep 2
2387557 | HMC-8 | finishes reducing for flow 1 (from NI 0) to parent HMC-12 (to NI 0) at timestep 2
2387557 | HMC-10 | finishes reducing for flow 9 (from NI 0) to parent HMC-14 (to NI 0) at timestep 2
2387557 | HMC-14 | finishes reducing for flow 5 (from NI 0) to parent HMC-15 (to NI 0) at timestep 2
2387558 | HMC-13 | finishes reducing for flow 4 (from NI 0) to parent HMC-9 (to NI 0) at timestep 2
2387558 | HMC-7 | finishes reducing for flow 14 (from NI 0) to parent HMC-3 (to NI 0) at timestep 2
2387558 | HMC-6 | finishes reducing for flow 13 (from NI 0) to parent HMC-10 (to NI 0) at timestep 2
2388611 | HMC-13 | receives full reduce for flow 0 from child HMC-12
2388611 | HMC-7 | receives full reduce for flow 10 from child HMC-11
2388611 | HMC-6 | receives full reduce for flow 12 from child HMC-5
2388611 | HMC-4 | receives full reduce for flow 3 from child HMC-0
2388611 | HMC-5 | receives full reduce for flow 8 from child HMC-9
2388611 | HMC-2 | receives full reduce for flow 15 from child HMC-3
2388611 | HMC-3 | receives full reduce for flow 14 from child HMC-7
2388611 | HMC-11 | receives full reduce for flow 6 from child HMC-15
2388611 | HMC-12 | receives full reduce for flow 1 from child HMC-8
2388611 | HMC-15 | receives full reduce for flow 5 from child HMC-14
2388611 | HMC-9 | receives full reduce for flow 4 from child HMC-13
2388611 | HMC-1 | receives full reduce for flow 11 from child HMC-2
2388611 | HMC-0 | receives full reduce for flow 7 from child HMC-1
2388611 | HMC-8 | receives full reduce for flow 2 from child HMC-4
2388611 | HMC-10 | receives full reduce for flow 13 from child HMC-6
2388611 | HMC-14 | receives full reduce for flow 9 from child HMC-10
2388612 | HMC-13 | starts aggregation, computation state: aggregating, communication state: reduce-scatter
2388612 | HMC-7 | starts aggregation, computation state: aggregating, communication state: reduce-scatter
2388612 | HMC-6 | starts aggregation, computation state: aggregating, communication state: reduce-scatter
2388612 | HMC-4 | starts aggregation, computation state: aggregating, communication state: reduce-scatter
2388612 | HMC-5 | starts aggregation, computation state: aggregating, communication state: reduce-scatter
2388612 | HMC-2 | starts aggregation, computation state: aggregating, communication state: reduce-scatter
2388612 | HMC-3 | starts aggregation, computation state: aggregating, communication state: reduce-scatter
2388612 | HMC-12 | starts aggregation, computation state: aggregating, communication state: reduce-scatter
2388612 | HMC-15 | starts aggregation, computation state: aggregating, communication state: reduce-scatter
2388612 | HMC-10 | starts aggregation, computation state: aggregating, communication state: reduce-scatter
2388612 | HMC-9 | starts aggregation, computation state: aggregating, communication state: reduce-scatter
2388612 | HMC-1 | starts aggregation, computation state: aggregating, communication state: reduce-scatter
2388612 | HMC-0 | starts aggregation, computation state: aggregating, communication state: reduce-scatter
2388612 | HMC-11 | starts aggregation, computation state: aggregating, communication state: reduce-scatter
2388612 | HMC-8 | starts aggregation, computation state: aggregating, communication state: reduce-scatter
2388612 | HMC-14 | starts aggregation, computation state: aggregating, communication state: reduce-scatter
2410180 | HMC-13 | clear pending aggregation for flow 0 from child HMC-12
2410180 | HMC-13 | finishes aggregation , computation state: idle, communication state: reduce-scatter
2410180 | HMC-7 | clear pending aggregation for flow 10 from child HMC-11
2410180 | HMC-7 | finishes aggregation , computation state: idle, communication state: reduce-scatter
2410180 | HMC-6 | clear pending aggregation for flow 12 from child HMC-5
2410180 | HMC-6 | finishes aggregation , computation state: idle, communication state: reduce-scatter
2410180 | HMC-4 | clear pending aggregation for flow 3 from child HMC-0
2410180 | HMC-4 | finishes aggregation , computation state: idle, communication state: reduce-scatter
2410180 | HMC-5 | clear pending aggregation for flow 8 from child HMC-9
2410180 | HMC-5 | finishes aggregation , computation state: idle, communication state: reduce-scatter
2410180 | HMC-2 | clear pending aggregation for flow 15 from child HMC-3
2410180 | HMC-2 | finishes aggregation , computation state: idle, communication state: reduce-scatter
2410180 | HMC-3 | clear pending aggregation for flow 14 from child HMC-7
2410180 | HMC-3 | finishes aggregation , computation state: idle, communication state: reduce-scatter
2410180 | HMC-12 | clear pending aggregation for flow 1 from child HMC-8
2410180 | HMC-12 | finishes aggregation , computation state: idle, communication state: reduce-scatter
2410180 | HMC-15 | clear pending aggregation for flow 5 from child HMC-14
2410180 | HMC-15 | finishes aggregation , computation state: idle, communication state: reduce-scatter
2410180 | HMC-9 | clear pending aggregation for flow 4 from child HMC-13
2410180 | HMC-9 | finishes aggregation , computation state: idle, communication state: reduce-scatter
2410180 | HMC-1 | clear pending aggregation for flow 11 from child HMC-2
2410180 | HMC-1 | finishes aggregation , computation state: idle, communication state: reduce-scatter
2410180 | HMC-0 | clear pending aggregation for flow 7 from child HMC-1
2410180 | HMC-0 | finishes aggregation , computation state: idle, communication state: reduce-scatter
2410180 | HMC-11 | clear pending aggregation for flow 6 from child HMC-15
2410180 | HMC-11 | finishes aggregation , computation state: idle, communication state: reduce-scatter
2410180 | HMC-10 | clear pending aggregation for flow 13 from child HMC-6
2410180 | HMC-10 | finishes aggregation , computation state: idle, communication state: reduce-scatter
2410180 | HMC-8 | clear pending aggregation for flow 2 from child HMC-4
2410180 | HMC-8 | finishes aggregation , computation state: idle, communication state: reduce-scatter
2410180 | HMC-14 | clear pending aggregation for flow 9 from child HMC-10
2410180 | HMC-14 | finishes aggregation , computation state: idle, communication state: reduce-scatter
2410181 | HMC-13 | start reducing for flow 0 (from NI 0) to parent HMC-9 (to NI 0) at timestep 3
2410181 | HMC-7 | start reducing for flow 10 (from NI 0) to parent HMC-3 (to NI 0) at timestep 3
2410181 | HMC-6 | start reducing for flow 12 (from NI 0) to parent HMC-10 (to NI 0) at timestep 3
2410181 | HMC-4 | start reducing for flow 3 (from NI 0) to parent HMC-8 (to NI 0) at timestep 3
2410181 | HMC-5 | start reducing for flow 8 (from NI 0) to parent HMC-6 (to NI 0) at timestep 3
2410181 | HMC-2 | start reducing for flow 15 (from NI 0) to parent HMC-1 (to NI 0) at timestep 3
2410181 | HMC-3 | start reducing for flow 14 (from NI 0) to parent HMC-2 (to NI 0) at timestep 3
2410181 | HMC-12 | start reducing for flow 1 (from NI 0) to parent HMC-13 (to NI 0) at timestep 3
2410181 | HMC-15 | start reducing for flow 5 (from NI 0) to parent HMC-11 (to NI 0) at timestep 3
2410181 | HMC-9 | start reducing for flow 4 (from NI 0) to parent HMC-5 (to NI 0) at timestep 3
2410181 | HMC-1 | start reducing for flow 11 (from NI 0) to parent HMC-0 (to NI 0) at timestep 3
2410181 | HMC-0 | start reducing for flow 7 (from NI 0) to parent HMC-4 (to NI 0) at timestep 3
2410181 | HMC-11 | start reducing for flow 6 (from NI 0) to parent HMC-7 (to NI 0) at timestep 3
2410181 | HMC-10 | start reducing for flow 13 (from NI 0) to parent HMC-14 (to NI 0) at timestep 3
2410181 | HMC-8 | start reducing for flow 2 (from NI 0) to parent HMC-12 (to NI 0) at timestep 3
2410181 | HMC-14 | start reducing for flow 9 (from NI 0) to parent HMC-15 (to NI 0) at timestep 3
2592616 | HMC-4 | finishes reducing for flow 3 (from NI 0) to parent HMC-8 (to NI 0) at timestep 3
2592616 | HMC-5 | finishes reducing for flow 8 (from NI 0) to parent HMC-6 (to NI 0) at timestep 3
2592616 | HMC-2 | finishes reducing for flow 15 (from NI 0) to parent HMC-1 (to NI 0) at timestep 3
2592616 | HMC-3 | finishes reducing for flow 14 (from NI 0) to parent HMC-2 (to NI 0) at timestep 3
2592616 | HMC-11 | finishes reducing for flow 6 (from NI 0) to parent HMC-7 (to NI 0) at timestep 3
2592616 | HMC-12 | finishes reducing for flow 1 (from NI 0) to parent HMC-13 (to NI 0) at timestep 3
2592616 | HMC-15 | finishes reducing for flow 5 (from NI 0) to parent HMC-11 (to NI 0) at timestep 3
2592616 | HMC-9 | finishes reducing for flow 4 (from NI 0) to parent HMC-5 (to NI 0) at timestep 3
2592616 | HMC-0 | finishes reducing for flow 7 (from NI 0) to parent HMC-4 (to NI 0) at timestep 3
2592616 | HMC-1 | finishes reducing for flow 11 (from NI 0) to parent HMC-0 (to NI 0) at timestep 3
2592616 | HMC-8 | finishes reducing for flow 2 (from NI 0) to parent HMC-12 (to NI 0) at timestep 3
2592616 | HMC-10 | finishes reducing for flow 13 (from NI 0) to parent HMC-14 (to NI 0) at timestep 3
2592616 | HMC-14 | finishes reducing for flow 9 (from NI 0) to parent HMC-15 (to NI 0) at timestep 3
2592617 | HMC-13 | finishes reducing for flow 0 (from NI 0) to parent HMC-9 (to NI 0) at timestep 3
2592617 | HMC-7 | finishes reducing for flow 10 (from NI 0) to parent HMC-3 (to NI 0) at timestep 3
2592617 | HMC-6 | finishes reducing for flow 12 (from NI 0) to parent HMC-10 (to NI 0) at timestep 3
2593670 | HMC-13 | receives full reduce for flow 1 from child HMC-12
2593670 | HMC-7 | receives full reduce for flow 6 from child HMC-11
2593670 | HMC-6 | receives full reduce for flow 8 from child HMC-5
2593670 | HMC-4 | receives full reduce for flow 7 from child HMC-0
2593670 | HMC-5 | receives full reduce for flow 4 from child HMC-9
2593670 | HMC-2 | receives full reduce for flow 14 from child HMC-3
2593670 | HMC-3 | receives full reduce for flow 10 from child HMC-7
2593670 | HMC-11 | receives full reduce for flow 5 from child HMC-15
2593670 | HMC-12 | receives full reduce for flow 2 from child HMC-8
2593670 | HMC-15 | receives full reduce for flow 9 from child HMC-14
2593670 | HMC-9 | receives full reduce for flow 0 from child HMC-13
2593670 | HMC-1 | receives full reduce for flow 15 from child HMC-2
2593670 | HMC-0 | receives full reduce for flow 11 from child HMC-1
2593670 | HMC-8 | receives full reduce for flow 3 from child HMC-4
2593670 | HMC-10 | receives full reduce for flow 12 from child HMC-6
2593670 | HMC-14 | receives full reduce for flow 13 from child HMC-10
2593671 | HMC-13 | starts aggregation, computation state: aggregating, communication state: reduce-scatter
2593671 | HMC-7 | starts aggregation, computation state: aggregating, communication state: reduce-scatter
2593671 | HMC-6 | starts aggregation, computation state: aggregating, communication state: reduce-scatter
2593671 | HMC-4 | starts aggregation, computation state: aggregating, communication state: reduce-scatter
2593671 | HMC-5 | starts aggregation, computation state: aggregating, communication state: reduce-scatter
2593671 | HMC-2 | starts aggregation, computation state: aggregating, communication state: reduce-scatter
2593671 | HMC-3 | starts aggregation, computation state: aggregating, communication state: reduce-scatter
2593671 | HMC-12 | starts aggregation, computation state: aggregating, communication state: reduce-scatter
2593671 | HMC-15 | starts aggregation, computation state: aggregating, communication state: reduce-scatter
2593671 | HMC-10 | starts aggregation, computation state: aggregating, communication state: reduce-scatter
2593671 | HMC-9 | starts aggregation, computation state: aggregating, communication state: reduce-scatter
2593671 | HMC-1 | starts aggregation, computation state: aggregating, communication state: reduce-scatter
2593671 | HMC-0 | starts aggregation, computation state: aggregating, communication state: reduce-scatter
2593671 | HMC-11 | starts aggregation, computation state: aggregating, communication state: reduce-scatter
2593671 | HMC-8 | starts aggregation, computation state: aggregating, communication state: reduce-scatter
2593671 | HMC-14 | starts aggregation, computation state: aggregating, communication state: reduce-scatter
2615239 | HMC-13 | clear pending aggregation for flow 1 from child HMC-12
2615239 | HMC-13 | finishes aggregation , computation state: idle, communication state: reduce-scatter
2615239 | HMC-7 | clear pending aggregation for flow 6 from child HMC-11
2615239 | HMC-7 | finishes aggregation , computation state: idle, communication state: reduce-scatter
2615239 | HMC-6 | clear pending aggregation for flow 8 from child HMC-5
2615239 | HMC-6 | finishes aggregation , computation state: idle, communication state: reduce-scatter
2615239 | HMC-4 | clear pending aggregation for flow 7 from child HMC-0
2615239 | HMC-4 | finishes aggregation , computation state: idle, communication state: reduce-scatter
2615239 | HMC-5 | clear pending aggregation for flow 4 from child HMC-9
2615239 | HMC-5 | finishes aggregation , computation state: idle, communication state: reduce-scatter
2615239 | HMC-2 | clear pending aggregation for flow 14 from child HMC-3
2615239 | HMC-2 | finishes aggregation , computation state: idle, communication state: reduce-scatter
2615239 | HMC-3 | clear pending aggregation for flow 10 from child HMC-7
2615239 | HMC-3 | finishes aggregation , computation state: idle, communication state: reduce-scatter
2615239 | HMC-12 | clear pending aggregation for flow 2 from child HMC-8
2615239 | HMC-12 | finishes aggregation , computation state: idle, communication state: reduce-scatter
2615239 | HMC-15 | clear pending aggregation for flow 9 from child HMC-14
2615239 | HMC-15 | finishes aggregation , computation state: idle, communication state: reduce-scatter
2615239 | HMC-9 | clear pending aggregation for flow 0 from child HMC-13
2615239 | HMC-9 | finishes aggregation , computation state: idle, communication state: reduce-scatter
2615239 | HMC-1 | clear pending aggregation for flow 15 from child HMC-2
2615239 | HMC-1 | finishes aggregation , computation state: idle, communication state: reduce-scatter
2615239 | HMC-0 | clear pending aggregation for flow 11 from child HMC-1
2615239 | HMC-0 | finishes aggregation , computation state: idle, communication state: reduce-scatter
2615239 | HMC-11 | clear pending aggregation for flow 5 from child HMC-15
2615239 | HMC-11 | finishes aggregation , computation state: idle, communication state: reduce-scatter
2615239 | HMC-10 | clear pending aggregation for flow 12 from child HMC-6
2615239 | HMC-10 | finishes aggregation , computation state: idle, communication state: reduce-scatter
2615239 | HMC-8 | clear pending aggregation for flow 3 from child HMC-4
2615239 | HMC-8 | finishes aggregation , computation state: idle, communication state: reduce-scatter
2615239 | HMC-14 | clear pending aggregation for flow 13 from child HMC-10
2615239 | HMC-14 | finishes aggregation , computation state: idle, communication state: reduce-scatter
2615240 | HMC-13 | start reducing for flow 1 (from NI 0) to parent HMC-9 (to NI 0) at timestep 4
2615240 | HMC-7 | start reducing for flow 6 (from NI 0) to parent HMC-3 (to NI 0) at timestep 4
2615240 | HMC-6 | start reducing for flow 8 (from NI 0) to parent HMC-10 (to NI 0) at timestep 4
2615240 | HMC-4 | start reducing for flow 7 (from NI 0) to parent HMC-8 (to NI 0) at timestep 4
2615240 | HMC-5 | start reducing for flow 4 (from NI 0) to parent HMC-6 (to NI 0) at timestep 4
2615240 | HMC-2 | start reducing for flow 14 (from NI 0) to parent HMC-1 (to NI 0) at timestep 4
2615240 | HMC-3 | start reducing for flow 10 (from NI 0) to parent HMC-2 (to NI 0) at timestep 4
2615240 | HMC-12 | start reducing for flow 2 (from NI 0) to parent HMC-13 (to NI 0) at timestep 4
2615240 | HMC-15 | start reducing for flow 9 (from NI 0) to parent HMC-11 (to NI 0) at timestep 4
2615240 | HMC-9 | start reducing for flow 0 (from NI 0) to parent HMC-5 (to NI 0) at timestep 4
2615240 | HMC-1 | start reducing for flow 15 (from NI 0) to parent HMC-0 (to NI 0) at timestep 4
2615240 | HMC-0 | start reducing for flow 11 (from NI 0) to parent HMC-4 (to NI 0) at timestep 4
2615240 | HMC-11 | start reducing for flow 5 (from NI 0) to parent HMC-7 (to NI 0) at timestep 4
2615240 | HMC-10 | start reducing for flow 12 (from NI 0) to parent HMC-14 (to NI 0) at timestep 4
2615240 | HMC-8 | start reducing for flow 3 (from NI 0) to parent HMC-12 (to NI 0) at timestep 4
2615240 | HMC-14 | start reducing for flow 13 (from NI 0) to parent HMC-15 (to NI 0) at timestep 4
2797675 | HMC-4 | finishes reducing for flow 7 (from NI 0) to parent HMC-8 (to NI 0) at timestep 4
2797675 | HMC-5 | finishes reducing for flow 4 (from NI 0) to parent HMC-6 (to NI 0) at timestep 4
2797675 | HMC-2 | finishes reducing for flow 14 (from NI 0) to parent HMC-1 (to NI 0) at timestep 4
2797675 | HMC-3 | finishes reducing for flow 10 (from NI 0) to parent HMC-2 (to NI 0) at timestep 4
2797675 | HMC-11 | finishes reducing for flow 5 (from NI 0) to parent HMC-7 (to NI 0) at timestep 4
2797675 | HMC-12 | finishes reducing for flow 2 (from NI 0) to parent HMC-13 (to NI 0) at timestep 4
2797675 | HMC-15 | finishes reducing for flow 9 (from NI 0) to parent HMC-11 (to NI 0) at timestep 4
2797675 | HMC-9 | finishes reducing for flow 0 (from NI 0) to parent HMC-5 (to NI 0) at timestep 4
2797675 | HMC-0 | finishes reducing for flow 11 (from NI 0) to parent HMC-4 (to NI 0) at timestep 4
2797675 | HMC-1 | finishes reducing for flow 15 (from NI 0) to parent HMC-0 (to NI 0) at timestep 4
2797675 | HMC-8 | finishes reducing for flow 3 (from NI 0) to parent HMC-12 (to NI 0) at timestep 4
2797675 | HMC-10 | finishes reducing for flow 12 (from NI 0) to parent HMC-14 (to NI 0) at timestep 4
2797675 | HMC-14 | finishes reducing for flow 13 (from NI 0) to parent HMC-15 (to NI 0) at timestep 4
2797676 | HMC-13 | finishes reducing for flow 1 (from NI 0) to parent HMC-9 (to NI 0) at timestep 4
2797676 | HMC-7 | finishes reducing for flow 6 (from NI 0) to parent HMC-3 (to NI 0) at timestep 4
2797676 | HMC-6 | finishes reducing for flow 8 (from NI 0) to parent HMC-10 (to NI 0) at timestep 4
2798729 | HMC-13 | receives full reduce for flow 2 from child HMC-12
2798729 | HMC-7 | receives full reduce for flow 5 from child HMC-11
2798729 | HMC-6 | receives full reduce for flow 4 from child HMC-5
2798729 | HMC-4 | receives full reduce for flow 11 from child HMC-0
2798729 | HMC-5 | receives full reduce for flow 0 from child HMC-9
2798729 | HMC-2 | receives full reduce for flow 10 from child HMC-3
2798729 | HMC-3 | receives full reduce for flow 6 from child HMC-7
2798729 | HMC-11 | receives full reduce for flow 9 from child HMC-15
2798729 | HMC-12 | receives full reduce for flow 3 from child HMC-8
2798729 | HMC-15 | receives full reduce for flow 13 from child HMC-14
2798729 | HMC-9 | receives full reduce for flow 1 from child HMC-13
2798729 | HMC-1 | receives full reduce for flow 14 from child HMC-2
2798729 | HMC-0 | receives full reduce for flow 15 from child HMC-1
2798729 | HMC-8 | receives full reduce for flow 7 from child HMC-4
2798729 | HMC-10 | receives full reduce for flow 8 from child HMC-6
2798729 | HMC-14 | receives full reduce for flow 12 from child HMC-10
2798730 | HMC-13 | starts aggregation, computation state: aggregating, communication state: reduce-scatter
2798730 | HMC-7 | starts aggregation, computation state: aggregating, communication state: reduce-scatter
2798730 | HMC-6 | starts aggregation, computation state: aggregating, communication state: reduce-scatter
2798730 | HMC-4 | starts aggregation, computation state: aggregating, communication state: reduce-scatter
2798730 | HMC-5 | starts aggregation, computation state: aggregating, communication state: reduce-scatter
2798730 | HMC-2 | starts aggregation, computation state: aggregating, communication state: reduce-scatter
2798730 | HMC-3 | starts aggregation, computation state: aggregating, communication state: reduce-scatter
2798730 | HMC-12 | starts aggregation, computation state: aggregating, communication state: reduce-scatter
2798730 | HMC-15 | starts aggregation, computation state: aggregating, communication state: reduce-scatter
2798730 | HMC-10 | starts aggregation, computation state: aggregating, communication state: reduce-scatter
2798730 | HMC-9 | starts aggregation, computation state: aggregating, communication state: reduce-scatter
2798730 | HMC-1 | starts aggregation, computation state: aggregating, communication state: reduce-scatter
2798730 | HMC-0 | starts aggregation, computation state: aggregating, communication state: reduce-scatter
2798730 | HMC-11 | starts aggregation, computation state: aggregating, communication state: reduce-scatter
2798730 | HMC-8 | starts aggregation, computation state: aggregating, communication state: reduce-scatter
2798730 | HMC-14 | starts aggregation, computation state: aggregating, communication state: reduce-scatter
2820298 | HMC-13 | clear pending aggregation for flow 2 from child HMC-12
2820298 | HMC-13 | finishes aggregation , computation state: idle, communication state: reduce-scatter
2820298 | HMC-7 | clear pending aggregation for flow 5 from child HMC-11
2820298 | HMC-7 | finishes aggregation , computation state: idle, communication state: reduce-scatter
2820298 | HMC-6 | clear pending aggregation for flow 4 from child HMC-5
2820298 | HMC-6 | finishes aggregation , computation state: idle, communication state: reduce-scatter
2820298 | HMC-4 | clear pending aggregation for flow 11 from child HMC-0
2820298 | HMC-4 | finishes aggregation , computation state: idle, communication state: reduce-scatter
2820298 | HMC-5 | clear pending aggregation for flow 0 from child HMC-9
2820298 | HMC-5 | finishes aggregation , computation state: idle, communication state: reduce-scatter
2820298 | HMC-2 | clear pending aggregation for flow 10 from child HMC-3
2820298 | HMC-2 | finishes aggregation , computation state: idle, communication state: reduce-scatter
2820298 | HMC-3 | clear pending aggregation for flow 6 from child HMC-7
2820298 | HMC-3 | finishes aggregation , computation state: idle, communication state: reduce-scatter
2820298 | HMC-12 | clear pending aggregation for flow 3 from child HMC-8
2820298 | HMC-12 | finishes aggregation , computation state: idle, communication state: reduce-scatter
2820298 | HMC-15 | clear pending aggregation for flow 13 from child HMC-14
2820298 | HMC-15 | finishes aggregation , computation state: idle, communication state: reduce-scatter
2820298 | HMC-9 | clear pending aggregation for flow 1 from child HMC-13
2820298 | HMC-9 | finishes aggregation , computation state: idle, communication state: reduce-scatter
2820298 | HMC-1 | clear pending aggregation for flow 14 from child HMC-2
2820298 | HMC-1 | finishes aggregation , computation state: idle, communication state: reduce-scatter
2820298 | HMC-0 | clear pending aggregation for flow 15 from child HMC-1
2820298 | HMC-0 | finishes aggregation , computation state: idle, communication state: reduce-scatter
2820298 | HMC-11 | clear pending aggregation for flow 9 from child HMC-15
2820298 | HMC-11 | finishes aggregation , computation state: idle, communication state: reduce-scatter
2820298 | HMC-10 | clear pending aggregation for flow 8 from child HMC-6
2820298 | HMC-10 | finishes aggregation , computation state: idle, communication state: reduce-scatter
2820298 | HMC-8 | clear pending aggregation for flow 7 from child HMC-4
2820298 | HMC-8 | finishes aggregation , computation state: idle, communication state: reduce-scatter
2820298 | HMC-14 | clear pending aggregation for flow 12 from child HMC-10
2820298 | HMC-14 | finishes aggregation , computation state: idle, communication state: reduce-scatter
2820299 | HMC-13 | start reducing for flow 2 (from NI 0) to parent HMC-9 (to NI 0) at timestep 5
2820299 | HMC-7 | start reducing for flow 5 (from NI 0) to parent HMC-3 (to NI 0) at timestep 5
2820299 | HMC-6 | start reducing for flow 4 (from NI 0) to parent HMC-10 (to NI 0) at timestep 5
2820299 | HMC-4 | start reducing for flow 11 (from NI 0) to parent HMC-8 (to NI 0) at timestep 5
2820299 | HMC-5 | start reducing for flow 0 (from NI 0) to parent HMC-6 (to NI 0) at timestep 5
2820299 | HMC-2 | start reducing for flow 10 (from NI 0) to parent HMC-1 (to NI 0) at timestep 5
2820299 | HMC-3 | start reducing for flow 6 (from NI 0) to parent HMC-2 (to NI 0) at timestep 5
2820299 | HMC-12 | start reducing for flow 3 (from NI 0) to parent HMC-13 (to NI 0) at timestep 5
2820299 | HMC-15 | start reducing for flow 13 (from NI 0) to parent HMC-11 (to NI 0) at timestep 5
2820299 | HMC-9 | start reducing for flow 1 (from NI 0) to parent HMC-5 (to NI 0) at timestep 5
2820299 | HMC-1 | start reducing for flow 14 (from NI 0) to parent HMC-0 (to NI 0) at timestep 5
2820299 | HMC-0 | start reducing for flow 15 (from NI 0) to parent HMC-4 (to NI 0) at timestep 5
2820299 | HMC-11 | start reducing for flow 9 (from NI 0) to parent HMC-7 (to NI 0) at timestep 5
2820299 | HMC-10 | start reducing for flow 8 (from NI 0) to parent HMC-14 (to NI 0) at timestep 5
2820299 | HMC-8 | start reducing for flow 7 (from NI 0) to parent HMC-12 (to NI 0) at timestep 5
2820299 | HMC-14 | start reducing for flow 12 (from NI 0) to parent HMC-15 (to NI 0) at timestep 5
3002734 | HMC-4 | finishes reducing for flow 11 (from NI 0) to parent HMC-8 (to NI 0) at timestep 5
3002734 | HMC-5 | finishes reducing for flow 0 (from NI 0) to parent HMC-6 (to NI 0) at timestep 5
3002734 | HMC-2 | finishes reducing for flow 10 (from NI 0) to parent HMC-1 (to NI 0) at timestep 5
3002734 | HMC-3 | finishes reducing for flow 6 (from NI 0) to parent HMC-2 (to NI 0) at timestep 5
3002734 | HMC-11 | finishes reducing for flow 9 (from NI 0) to parent HMC-7 (to NI 0) at timestep 5
3002734 | HMC-12 | finishes reducing for flow 3 (from NI 0) to parent HMC-13 (to NI 0) at timestep 5
3002734 | HMC-15 | finishes reducing for flow 13 (from NI 0) to parent HMC-11 (to NI 0) at timestep 5
3002734 | HMC-9 | finishes reducing for flow 1 (from NI 0) to parent HMC-5 (to NI 0) at timestep 5
3002734 | HMC-0 | finishes reducing for flow 15 (from NI 0) to parent HMC-4 (to NI 0) at timestep 5
3002734 | HMC-1 | finishes reducing for flow 14 (from NI 0) to parent HMC-0 (to NI 0) at timestep 5
3002734 | HMC-8 | finishes reducing for flow 7 (from NI 0) to parent HMC-12 (to NI 0) at timestep 5
3002734 | HMC-10 | finishes reducing for flow 8 (from NI 0) to parent HMC-14 (to NI 0) at timestep 5
3002734 | HMC-14 | finishes reducing for flow 12 (from NI 0) to parent HMC-15 (to NI 0) at timestep 5
3002735 | HMC-13 | finishes reducing for flow 2 (from NI 0) to parent HMC-9 (to NI 0) at timestep 5
3002735 | HMC-7 | finishes reducing for flow 5 (from NI 0) to parent HMC-3 (to NI 0) at timestep 5
3002735 | HMC-6 | finishes reducing for flow 4 (from NI 0) to parent HMC-10 (to NI 0) at timestep 5
3003788 | HMC-13 | receives full reduce for flow 3 from child HMC-12
3003788 | HMC-7 | receives full reduce for flow 9 from child HMC-11
3003788 | HMC-6 | receives full reduce for flow 0 from child HMC-5
3003788 | HMC-4 | receives full reduce for flow 15 from child HMC-0
3003788 | HMC-5 | receives full reduce for flow 1 from child HMC-9
3003788 | HMC-2 | receives full reduce for flow 6 from child HMC-3
3003788 | HMC-3 | receives full reduce for flow 5 from child HMC-7
3003788 | HMC-11 | receives full reduce for flow 13 from child HMC-15
3003788 | HMC-12 | receives full reduce for flow 7 from child HMC-8
3003788 | HMC-15 | receives full reduce for flow 12 from child HMC-14
3003788 | HMC-9 | receives full reduce for flow 2 from child HMC-13
3003788 | HMC-1 | receives full reduce for flow 10 from child HMC-2
3003788 | HMC-0 | receives full reduce for flow 14 from child HMC-1
3003788 | HMC-8 | receives full reduce for flow 11 from child HMC-4
3003788 | HMC-10 | receives full reduce for flow 4 from child HMC-6
3003788 | HMC-14 | receives full reduce for flow 8 from child HMC-10
3003789 | HMC-13 | starts aggregation, computation state: aggregating, communication state: reduce-scatter
3003789 | HMC-7 | starts aggregation, computation state: aggregating, communication state: reduce-scatter
3003789 | HMC-6 | starts aggregation, computation state: aggregating, communication state: reduce-scatter
3003789 | HMC-4 | starts aggregation, computation state: aggregating, communication state: reduce-scatter
3003789 | HMC-5 | starts aggregation, computation state: aggregating, communication state: reduce-scatter
3003789 | HMC-2 | starts aggregation, computation state: aggregating, communication state: reduce-scatter
3003789 | HMC-3 | starts aggregation, computation state: aggregating, communication state: reduce-scatter
3003789 | HMC-12 | starts aggregation, computation state: aggregating, communication state: reduce-scatter
3003789 | HMC-15 | starts aggregation, computation state: aggregating, communication state: reduce-scatter
3003789 | HMC-10 | starts aggregation, computation state: aggregating, communication state: reduce-scatter
3003789 | HMC-9 | starts aggregation, computation state: aggregating, communication state: reduce-scatter
3003789 | HMC-1 | starts aggregation, computation state: aggregating, communication state: reduce-scatter
3003789 | HMC-0 | starts aggregation, computation state: aggregating, communication state: reduce-scatter
3003789 | HMC-11 | starts aggregation, computation state: aggregating, communication state: reduce-scatter
3003789 | HMC-8 | starts aggregation, computation state: aggregating, communication state: reduce-scatter
3003789 | HMC-14 | starts aggregation, computation state: aggregating, communication state: reduce-scatter
3025357 | HMC-13 | clear pending aggregation for flow 3 from child HMC-12
3025357 | HMC-13 | finishes aggregation , computation state: idle, communication state: reduce-scatter
3025357 | HMC-7 | clear pending aggregation for flow 9 from child HMC-11
3025357 | HMC-7 | finishes aggregation , computation state: idle, communication state: reduce-scatter
3025357 | HMC-6 | clear pending aggregation for flow 0 from child HMC-5
3025357 | HMC-6 | finishes aggregation , computation state: idle, communication state: reduce-scatter
3025357 | HMC-4 | clear pending aggregation for flow 15 from child HMC-0
3025357 | HMC-4 | finishes aggregation , computation state: idle, communication state: reduce-scatter
3025357 | HMC-5 | clear pending aggregation for flow 1 from child HMC-9
3025357 | HMC-5 | finishes aggregation , computation state: idle, communication state: reduce-scatter
3025357 | HMC-2 | clear pending aggregation for flow 6 from child HMC-3
3025357 | HMC-2 | finishes aggregation , computation state: idle, communication state: reduce-scatter
3025357 | HMC-3 | clear pending aggregation for flow 5 from child HMC-7
3025357 | HMC-3 | finishes aggregation , computation state: idle, communication state: reduce-scatter
3025357 | HMC-12 | clear pending aggregation for flow 7 from child HMC-8
3025357 | HMC-12 | finishes aggregation , computation state: idle, communication state: reduce-scatter
3025357 | HMC-15 | clear pending aggregation for flow 12 from child HMC-14
3025357 | HMC-15 | finishes aggregation , computation state: idle, communication state: reduce-scatter
3025357 | HMC-9 | clear pending aggregation for flow 2 from child HMC-13
3025357 | HMC-9 | finishes aggregation , computation state: idle, communication state: reduce-scatter
3025357 | HMC-1 | clear pending aggregation for flow 10 from child HMC-2
3025357 | HMC-1 | finishes aggregation , computation state: idle, communication state: reduce-scatter
3025357 | HMC-0 | clear pending aggregation for flow 14 from child HMC-1
3025357 | HMC-0 | finishes aggregation , computation state: idle, communication state: reduce-scatter
3025357 | HMC-11 | clear pending aggregation for flow 13 from child HMC-15
3025357 | HMC-11 | finishes aggregation , computation state: idle, communication state: reduce-scatter
3025357 | HMC-10 | clear pending aggregation for flow 4 from child HMC-6
3025357 | HMC-10 | finishes aggregation , computation state: idle, communication state: reduce-scatter
3025357 | HMC-8 | clear pending aggregation for flow 11 from child HMC-4
3025357 | HMC-8 | finishes aggregation , computation state: idle, communication state: reduce-scatter
3025357 | HMC-14 | clear pending aggregation for flow 8 from child HMC-10
3025357 | HMC-14 | finishes aggregation , computation state: idle, communication state: reduce-scatter
3025358 | HMC-13 | start reducing for flow 3 (from NI 0) to parent HMC-9 (to NI 0) at timestep 6
3025358 | HMC-7 | start reducing for flow 9 (from NI 0) to parent HMC-3 (to NI 0) at timestep 6
3025358 | HMC-6 | start reducing for flow 0 (from NI 0) to parent HMC-10 (to NI 0) at timestep 6
3025358 | HMC-4 | start reducing for flow 15 (from NI 0) to parent HMC-8 (to NI 0) at timestep 6
3025358 | HMC-5 | start reducing for flow 1 (from NI 0) to parent HMC-6 (to NI 0) at timestep 6
3025358 | HMC-2 | start reducing for flow 6 (from NI 0) to parent HMC-1 (to NI 0) at timestep 6
3025358 | HMC-3 | start reducing for flow 5 (from NI 0) to parent HMC-2 (to NI 0) at timestep 6
3025358 | HMC-12 | start reducing for flow 7 (from NI 0) to parent HMC-13 (to NI 0) at timestep 6
3025358 | HMC-15 | start reducing for flow 12 (from NI 0) to parent HMC-11 (to NI 0) at timestep 6
3025358 | HMC-9 | start reducing for flow 2 (from NI 0) to parent HMC-5 (to NI 0) at timestep 6
3025358 | HMC-1 | start reducing for flow 10 (from NI 0) to parent HMC-0 (to NI 0) at timestep 6
3025358 | HMC-0 | start reducing for flow 14 (from NI 0) to parent HMC-4 (to NI 0) at timestep 6
3025358 | HMC-11 | start reducing for flow 13 (from NI 0) to parent HMC-7 (to NI 0) at timestep 6
3025358 | HMC-10 | start reducing for flow 4 (from NI 0) to parent HMC-14 (to NI 0) at timestep 6
3025358 | HMC-8 | start reducing for flow 11 (from NI 0) to parent HMC-12 (to NI 0) at timestep 6
3025358 | HMC-14 | start reducing for flow 8 (from NI 0) to parent HMC-15 (to NI 0) at timestep 6
3207793 | HMC-4 | finishes reducing for flow 15 (from NI 0) to parent HMC-8 (to NI 0) at timestep 6
3207793 | HMC-5 | finishes reducing for flow 1 (from NI 0) to parent HMC-6 (to NI 0) at timestep 6
3207793 | HMC-2 | finishes reducing for flow 6 (from NI 0) to parent HMC-1 (to NI 0) at timestep 6
3207793 | HMC-3 | finishes reducing for flow 5 (from NI 0) to parent HMC-2 (to NI 0) at timestep 6
3207793 | HMC-11 | finishes reducing for flow 13 (from NI 0) to parent HMC-7 (to NI 0) at timestep 6
3207793 | HMC-12 | finishes reducing for flow 7 (from NI 0) to parent HMC-13 (to NI 0) at timestep 6
3207793 | HMC-15 | finishes reducing for flow 12 (from NI 0) to parent HMC-11 (to NI 0) at timestep 6
3207793 | HMC-9 | finishes reducing for flow 2 (from NI 0) to parent HMC-5 (to NI 0) at timestep 6
3207793 | HMC-0 | finishes reducing for flow 14 (from NI 0) to parent HMC-4 (to NI 0) at timestep 6
3207793 | HMC-1 | finishes reducing for flow 10 (from NI 0) to parent HMC-0 (to NI 0) at timestep 6
3207793 | HMC-8 | finishes reducing for flow 11 (from NI 0) to parent HMC-12 (to NI 0) at timestep 6
3207793 | HMC-10 | finishes reducing for flow 4 (from NI 0) to parent HMC-14 (to NI 0) at timestep 6
3207793 | HMC-14 | finishes reducing for flow 8 (from NI 0) to parent HMC-15 (to NI 0) at timestep 6
3207794 | HMC-13 | finishes reducing for flow 3 (from NI 0) to parent HMC-9 (to NI 0) at timestep 6
3207794 | HMC-7 | finishes reducing for flow 9 (from NI 0) to parent HMC-3 (to NI 0) at timestep 6
3207794 | HMC-6 | finishes reducing for flow 0 (from NI 0) to parent HMC-10 (to NI 0) at timestep 6
3208847 | HMC-13 | receives full reduce for flow 7 from child HMC-12
3208847 | HMC-7 | receives full reduce for flow 13 from child HMC-11
3208847 | HMC-6 | receives full reduce for flow 1 from child HMC-5
3208847 | HMC-4 | receives full reduce for flow 14 from child HMC-0
3208847 | HMC-5 | receives full reduce for flow 2 from child HMC-9
3208847 | HMC-2 | receives full reduce for flow 5 from child HMC-3
3208847 | HMC-3 | receives full reduce for flow 9 from child HMC-7
3208847 | HMC-11 | receives full reduce for flow 12 from child HMC-15
3208847 | HMC-12 | receives full reduce for flow 11 from child HMC-8
3208847 | HMC-15 | receives full reduce for flow 8 from child HMC-14
3208847 | HMC-9 | receives full reduce for flow 3 from child HMC-13
3208847 | HMC-1 | receives full reduce for flow 6 from child HMC-2
3208847 | HMC-0 | receives full reduce for flow 10 from child HMC-1
3208847 | HMC-8 | receives full reduce for flow 15 from child HMC-4
3208847 | HMC-10 | receives full reduce for flow 0 from child HMC-6
3208847 | HMC-14 | receives full reduce for flow 4 from child HMC-10
3208848 | HMC-13 | starts aggregation, computation state: aggregating, communication state: reduce-scatter
3208848 | HMC-7 | starts aggregation, computation state: aggregating, communication state: reduce-scatter
3208848 | HMC-6 | starts aggregation, computation state: aggregating, communication state: reduce-scatter
3208848 | HMC-4 | starts aggregation, computation state: aggregating, communication state: reduce-scatter
3208848 | HMC-5 | starts aggregation, computation state: aggregating, communication state: reduce-scatter
3208848 | HMC-2 | starts aggregation, computation state: aggregating, communication state: reduce-scatter
3208848 | HMC-3 | starts aggregation, computation state: aggregating, communication state: reduce-scatter
3208848 | HMC-12 | starts aggregation, computation state: aggregating, communication state: reduce-scatter
3208848 | HMC-15 | starts aggregation, computation state: aggregating, communication state: reduce-scatter
3208848 | HMC-10 | starts aggregation, computation state: aggregating, communication state: reduce-scatter
3208848 | HMC-9 | starts aggregation, computation state: aggregating, communication state: reduce-scatter
3208848 | HMC-1 | starts aggregation, computation state: aggregating, communication state: reduce-scatter
3208848 | HMC-0 | starts aggregation, computation state: aggregating, communication state: reduce-scatter
3208848 | HMC-11 | starts aggregation, computation state: aggregating, communication state: reduce-scatter
3208848 | HMC-8 | starts aggregation, computation state: aggregating, communication state: reduce-scatter
3208848 | HMC-14 | starts aggregation, computation state: aggregating, communication state: reduce-scatter
3230416 | HMC-13 | clear pending aggregation for flow 7 from child HMC-12
3230416 | HMC-13 | finishes aggregation , computation state: idle, communication state: reduce-scatter
3230416 | HMC-7 | clear pending aggregation for flow 13 from child HMC-11
3230416 | HMC-7 | finishes aggregation , computation state: idle, communication state: reduce-scatter
3230416 | HMC-6 | clear pending aggregation for flow 1 from child HMC-5
3230416 | HMC-6 | finishes aggregation , computation state: idle, communication state: reduce-scatter
3230416 | HMC-4 | clear pending aggregation for flow 14 from child HMC-0
3230416 | HMC-4 | finishes aggregation , computation state: idle, communication state: reduce-scatter
3230416 | HMC-5 | clear pending aggregation for flow 2 from child HMC-9
3230416 | HMC-5 | finishes aggregation , computation state: idle, communication state: reduce-scatter
3230416 | HMC-2 | clear pending aggregation for flow 5 from child HMC-3
3230416 | HMC-2 | finishes aggregation , computation state: idle, communication state: reduce-scatter
3230416 | HMC-3 | clear pending aggregation for flow 9 from child HMC-7
3230416 | HMC-3 | finishes aggregation , computation state: idle, communication state: reduce-scatter
3230416 | HMC-12 | clear pending aggregation for flow 11 from child HMC-8
3230416 | HMC-12 | finishes aggregation , computation state: idle, communication state: reduce-scatter
3230416 | HMC-15 | clear pending aggregation for flow 8 from child HMC-14
3230416 | HMC-15 | finishes aggregation , computation state: idle, communication state: reduce-scatter
3230416 | HMC-9 | clear pending aggregation for flow 3 from child HMC-13
3230416 | HMC-9 | finishes aggregation , computation state: idle, communication state: reduce-scatter
3230416 | HMC-1 | clear pending aggregation for flow 6 from child HMC-2
3230416 | HMC-1 | finishes aggregation , computation state: idle, communication state: reduce-scatter
3230416 | HMC-0 | clear pending aggregation for flow 10 from child HMC-1
3230416 | HMC-0 | finishes aggregation , computation state: idle, communication state: reduce-scatter
3230416 | HMC-11 | clear pending aggregation for flow 12 from child HMC-15
3230416 | HMC-11 | finishes aggregation , computation state: idle, communication state: reduce-scatter
3230416 | HMC-10 | clear pending aggregation for flow 0 from child HMC-6
3230416 | HMC-10 | finishes aggregation , computation state: idle, communication state: reduce-scatter
3230416 | HMC-8 | clear pending aggregation for flow 15 from child HMC-4
3230416 | HMC-8 | finishes aggregation , computation state: idle, communication state: reduce-scatter
3230416 | HMC-14 | clear pending aggregation for flow 4 from child HMC-10
3230416 | HMC-14 | finishes aggregation , computation state: idle, communication state: reduce-scatter
3230417 | HMC-13 | start reducing for flow 7 (from NI 0) to parent HMC-9 (to NI 0) at timestep 7
3230417 | HMC-7 | start reducing for flow 13 (from NI 0) to parent HMC-3 (to NI 0) at timestep 7
3230417 | HMC-6 | start reducing for flow 1 (from NI 0) to parent HMC-10 (to NI 0) at timestep 7
3230417 | HMC-4 | start reducing for flow 14 (from NI 0) to parent HMC-8 (to NI 0) at timestep 7
3230417 | HMC-5 | start reducing for flow 2 (from NI 0) to parent HMC-6 (to NI 0) at timestep 7
3230417 | HMC-2 | start reducing for flow 5 (from NI 0) to parent HMC-1 (to NI 0) at timestep 7
3230417 | HMC-3 | start reducing for flow 9 (from NI 0) to parent HMC-2 (to NI 0) at timestep 7
3230417 | HMC-12 | start reducing for flow 11 (from NI 0) to parent HMC-13 (to NI 0) at timestep 7
3230417 | HMC-15 | start reducing for flow 8 (from NI 0) to parent HMC-11 (to NI 0) at timestep 7
3230417 | HMC-9 | start reducing for flow 3 (from NI 0) to parent HMC-5 (to NI 0) at timestep 7
3230417 | HMC-1 | start reducing for flow 6 (from NI 0) to parent HMC-0 (to NI 0) at timestep 7
3230417 | HMC-0 | start reducing for flow 10 (from NI 0) to parent HMC-4 (to NI 0) at timestep 7
3230417 | HMC-11 | start reducing for flow 12 (from NI 0) to parent HMC-7 (to NI 0) at timestep 7
3230417 | HMC-10 | start reducing for flow 0 (from NI 0) to parent HMC-14 (to NI 0) at timestep 7
3230417 | HMC-8 | start reducing for flow 15 (from NI 0) to parent HMC-12 (to NI 0) at timestep 7
3230417 | HMC-14 | start reducing for flow 4 (from NI 0) to parent HMC-15 (to NI 0) at timestep 7
3412852 | HMC-4 | finishes reducing for flow 14 (from NI 0) to parent HMC-8 (to NI 0) at timestep 7
3412852 | HMC-5 | finishes reducing for flow 2 (from NI 0) to parent HMC-6 (to NI 0) at timestep 7
3412852 | HMC-2 | finishes reducing for flow 5 (from NI 0) to parent HMC-1 (to NI 0) at timestep 7
3412852 | HMC-3 | finishes reducing for flow 9 (from NI 0) to parent HMC-2 (to NI 0) at timestep 7
3412852 | HMC-11 | finishes reducing for flow 12 (from NI 0) to parent HMC-7 (to NI 0) at timestep 7
3412852 | HMC-12 | finishes reducing for flow 11 (from NI 0) to parent HMC-13 (to NI 0) at timestep 7
3412852 | HMC-15 | finishes reducing for flow 8 (from NI 0) to parent HMC-11 (to NI 0) at timestep 7
3412852 | HMC-9 | finishes reducing for flow 3 (from NI 0) to parent HMC-5 (to NI 0) at timestep 7
3412852 | HMC-0 | finishes reducing for flow 10 (from NI 0) to parent HMC-4 (to NI 0) at timestep 7
3412852 | HMC-1 | finishes reducing for flow 6 (from NI 0) to parent HMC-0 (to NI 0) at timestep 7
3412852 | HMC-8 | finishes reducing for flow 15 (from NI 0) to parent HMC-12 (to NI 0) at timestep 7
3412852 | HMC-10 | finishes reducing for flow 0 (from NI 0) to parent HMC-14 (to NI 0) at timestep 7
3412852 | HMC-14 | finishes reducing for flow 4 (from NI 0) to parent HMC-15 (to NI 0) at timestep 7
3412853 | HMC-13 | finishes reducing for flow 7 (from NI 0) to parent HMC-9 (to NI 0) at timestep 7
3412853 | HMC-7 | finishes reducing for flow 13 (from NI 0) to parent HMC-3 (to NI 0) at timestep 7
3412853 | HMC-6 | finishes reducing for flow 1 (from NI 0) to parent HMC-10 (to NI 0) at timestep 7
3413906 | HMC-13 | receives full reduce for flow 11 from child HMC-12
3413906 | HMC-7 | receives full reduce for flow 12 from child HMC-11
3413906 | HMC-6 | receives full reduce for flow 2 from child HMC-5
3413906 | HMC-4 | receives full reduce for flow 10 from child HMC-0
3413906 | HMC-5 | receives full reduce for flow 3 from child HMC-9
3413906 | HMC-2 | receives full reduce for flow 9 from child HMC-3
3413906 | HMC-3 | receives full reduce for flow 13 from child HMC-7
3413906 | HMC-11 | receives full reduce for flow 8 from child HMC-15
3413906 | HMC-12 | receives full reduce for flow 15 from child HMC-8
3413906 | HMC-15 | receives full reduce for flow 4 from child HMC-14
3413906 | HMC-9 | receives full reduce for flow 7 from child HMC-13
3413906 | HMC-1 | receives full reduce for flow 5 from child HMC-2
3413906 | HMC-0 | receives full reduce for flow 6 from child HMC-1
3413906 | HMC-8 | receives full reduce for flow 14 from child HMC-4
3413906 | HMC-10 | receives full reduce for flow 1 from child HMC-6
3413906 | HMC-14 | receives full reduce for flow 0 from child HMC-10
3413907 | HMC-13 | starts aggregation, computation state: aggregating, communication state: reduce-scatter
3413907 | HMC-7 | starts aggregation, computation state: aggregating, communication state: reduce-scatter
3413907 | HMC-6 | starts aggregation, computation state: aggregating, communication state: reduce-scatter
3413907 | HMC-4 | starts aggregation, computation state: aggregating, communication state: reduce-scatter
3413907 | HMC-5 | starts aggregation, computation state: aggregating, communication state: reduce-scatter
3413907 | HMC-2 | starts aggregation, computation state: aggregating, communication state: reduce-scatter
3413907 | HMC-3 | starts aggregation, computation state: aggregating, communication state: reduce-scatter
3413907 | HMC-12 | starts aggregation, computation state: aggregating, communication state: reduce-scatter
3413907 | HMC-15 | starts aggregation, computation state: aggregating, communication state: reduce-scatter
3413907 | HMC-10 | starts aggregation, computation state: aggregating, communication state: reduce-scatter
3413907 | HMC-9 | starts aggregation, computation state: aggregating, communication state: reduce-scatter
3413907 | HMC-1 | starts aggregation, computation state: aggregating, communication state: reduce-scatter
3413907 | HMC-0 | starts aggregation, computation state: aggregating, communication state: reduce-scatter
3413907 | HMC-11 | starts aggregation, computation state: aggregating, communication state: reduce-scatter
3413907 | HMC-8 | starts aggregation, computation state: aggregating, communication state: reduce-scatter
3413907 | HMC-14 | starts aggregation, computation state: aggregating, communication state: reduce-scatter
3435475 | HMC-13 | clear pending aggregation for flow 11 from child HMC-12
3435475 | HMC-13 | finishes aggregation , computation state: idle, communication state: reduce-scatter
3435475 | HMC-7 | clear pending aggregation for flow 12 from child HMC-11
3435475 | HMC-7 | finishes aggregation , computation state: idle, communication state: reduce-scatter
3435475 | HMC-6 | clear pending aggregation for flow 2 from child HMC-5
3435475 | HMC-6 | finishes aggregation , computation state: idle, communication state: reduce-scatter
3435475 | HMC-4 | clear pending aggregation for flow 10 from child HMC-0
3435475 | HMC-4 | finishes aggregation , computation state: idle, communication state: reduce-scatter
3435475 | HMC-5 | clear pending aggregation for flow 3 from child HMC-9
3435475 | HMC-5 | finishes aggregation , computation state: idle, communication state: reduce-scatter
3435475 | HMC-2 | clear pending aggregation for flow 9 from child HMC-3
3435475 | HMC-2 | finishes aggregation , computation state: idle, communication state: reduce-scatter
3435475 | HMC-3 | clear pending aggregation for flow 13 from child HMC-7
3435475 | HMC-3 | finishes aggregation , computation state: idle, communication state: reduce-scatter
3435475 | HMC-12 | clear pending aggregation for flow 15 from child HMC-8
3435475 | HMC-12 | finishes aggregation , computation state: idle, communication state: reduce-scatter
3435475 | HMC-15 | clear pending aggregation for flow 4 from child HMC-14
3435475 | HMC-15 | finishes aggregation , computation state: idle, communication state: reduce-scatter
3435475 | HMC-9 | clear pending aggregation for flow 7 from child HMC-13
3435475 | HMC-9 | finishes aggregation , computation state: idle, communication state: reduce-scatter
3435475 | HMC-1 | clear pending aggregation for flow 5 from child HMC-2
3435475 | HMC-1 | finishes aggregation , computation state: idle, communication state: reduce-scatter
3435475 | HMC-0 | clear pending aggregation for flow 6 from child HMC-1
[...]
6889279 | HMC-12 | receives full gather for flow 2 from parent HMC-13
6889279 | HMC-15 | receives full gather for flow 9 from parent HMC-11
6889279 | HMC-9 | receives full gather for flow 0 from parent HMC-5
6889279 | HMC-1 | receives full gather for flow 15 from parent HMC-0
6889279 | HMC-0 | receives full gather for flow 11 from parent HMC-4
6889279 | HMC-8 | receives full gather for flow 3 from parent HMC-12
6889279 | HMC-10 | receives full gather for flow 12 from parent HMC-14
6889279 | HMC-14 | receives full gather for flow 13 from parent HMC-15
6889280 | HMC-13 | start gathering for flow 1 (from NI 0) to child HMC-12 (to NI 0) at timestep 27
6889280 | HMC-7 | start gathering for flow 6 (from NI 0) to child HMC-11 (to NI 0) at timestep 27
6889280 | HMC-6 | start gathering for flow 8 (from NI 0) to child HMC-5 (to NI 0) at timestep 27
6889280 | HMC-4 | start gathering for flow 7 (from NI 0) to child HMC-0 (to NI 0) at timestep 27
6889280 | HMC-5 | start gathering for flow 4 (from NI 0) to child HMC-9 (to NI 0) at timestep 27
6889280 | HMC-2 | start gathering for flow 14 (from NI 0) to child HMC-3 (to NI 0) at timestep 27
6889280 | HMC-3 | start gathering for flow 10 (from NI 0) to child HMC-7 (to NI 0) at timestep 27
6889280 | HMC-12 | start gathering for flow 2 (from NI 0) to child HMC-8 (to NI 0) at timestep 27
6889280 | HMC-15 | start gathering for flow 9 (from NI 0) to child HMC-14 (to NI 0) at timestep 27
6889280 | HMC-10 | start gathering for flow 12 (from NI 0) to child HMC-6 (to NI 0) at timestep 27
6889280 | HMC-9 | start gathering for flow 0 (from NI 0) to child HMC-13 (to NI 0) at timestep 27
6889280 | HMC-1 | start gathering for flow 15 (from NI 0) to child HMC-2 (to NI 0) at timestep 27
6889280 | HMC-0 | start gathering for flow 11 (from NI 0) to child HMC-1 (to NI 0) at timestep 27
6889280 | HMC-11 | start gathering for flow 5 (from NI 0) to child HMC-15 (to NI 0) at timestep 27
6889280 | HMC-8 | start gathering for flow 3 (from NI 0) to child HMC-4 (to NI 0) at timestep 27
6889280 | HMC-14 | start gathering for flow 13 (from NI 0) to child HMC-10 (to NI 0) at timestep 27
7071715 | HMC-4 | finishes gather for flow 7 (from NI 0) to child HMC-0 (to NI 0) at timestep 27
7071715 | HMC-5 | finishes gather for flow 4 (from NI 0) to child HMC-9 (to NI 0) at timestep 27
7071715 | HMC-2 | finishes gather for flow 14 (from NI 0) to child HMC-3 (to NI 0) at timestep 27
7071715 | HMC-3 | finishes gather for flow 10 (from NI 0) to child HMC-7 (to NI 0) at timestep 27
7071715 | HMC-11 | finishes gather for flow 5 (from NI 0) to child HMC-15 (to NI 0) at timestep 27
7071715 | HMC-12 | finishes gather for flow 2 (from NI 0) to child HMC-8 (to NI 0) at timestep 27
7071715 | HMC-15 | finishes gather for flow 9 (from NI 0) to child HMC-14 (to NI 0) at timestep 27
7071715 | HMC-9 | finishes gather for flow 0 (from NI 0) to child HMC-13 (to NI 0) at timestep 27
7071715 | HMC-0 | finishes gather for flow 11 (from NI 0) to child HMC-1 (to NI 0) at timestep 27
7071715 | HMC-1 | finishes gather for flow 15 (from NI 0) to child HMC-2 (to NI 0) at timestep 27
7071715 | HMC-8 | finishes gather for flow 3 (from NI 0) to child HMC-4 (to NI 0) at timestep 27
7071715 | HMC-10 | finishes gather for flow 12 (from NI 0) to child HMC-6 (to NI 0) at timestep 27
7071715 | HMC-14 | finishes gather for flow 13 (from NI 0) to child HMC-10 (to NI 0) at timestep 27
7071716 | HMC-13 | finishes gather for flow 1 (from NI 0) to child HMC-12 (to NI 0) at timestep 27
7071716 | HMC-7 | finishes gather for flow 6 (from NI 0) to child HMC-11 (to NI 0) at timestep 27
7071716 | HMC-6 | finishes gather for flow 8 (from NI 0) to child HMC-5 (to NI 0) at timestep 27
7072769 | HMC-13 | receives full gather for flow 0 from parent HMC-9
7072769 | HMC-7 | receives full gather for flow 10 from parent HMC-3
7072769 | HMC-6 | receives full gather for flow 12 from parent HMC-10
7072769 | HMC-4 | receives full gather for flow 3 from parent HMC-8
7072769 | HMC-5 | receives full gather for flow 8 from parent HMC-6
7072769 | HMC-2 | receives full gather for flow 15 from parent HMC-1
7072769 | HMC-3 | receives full gather for flow 14 from parent HMC-2
7072769 | HMC-11 | receives full gather for flow 6 from parent HMC-7
7072769 | HMC-12 | receives full gather for flow 1 from parent HMC-13
7072769 | HMC-15 | receives full gather for flow 5 from parent HMC-11
7072769 | HMC-9 | receives full gather for flow 4 from parent HMC-5
7072769 | HMC-1 | receives full gather for flow 11 from parent HMC-0
7072769 | HMC-0 | receives full gather for flow 7 from parent HMC-4
7072769 | HMC-8 | receives full gather for flow 2 from parent HMC-12
7072769 | HMC-10 | receives full gather for flow 13 from parent HMC-14
7072769 | HMC-14 | receives full gather for flow 9 from parent HMC-15
7072770 | HMC-13 | start gathering for flow 0 (from NI 0) to child HMC-12 (to NI 0) at timestep 28
7072770 | HMC-7 | start gathering for flow 10 (from NI 0) to child HMC-11 (to NI 0) at timestep 28
7072770 | HMC-6 | start gathering for flow 12 (from NI 0) to child HMC-5 (to NI 0) at timestep 28
7072770 | HMC-4 | start gathering for flow 3 (from NI 0) to child HMC-0 (to NI 0) at timestep 28
7072770 | HMC-5 | start gathering for flow 8 (from NI 0) to child HMC-9 (to NI 0) at timestep 28
7072770 | HMC-2 | start gathering for flow 15 (from NI 0) to child HMC-3 (to NI 0) at timestep 28
7072770 | HMC-3 | start gathering for flow 14 (from NI 0) to child HMC-7 (to NI 0) at timestep 28
7072770 | HMC-12 | start gathering for flow 1 (from NI 0) to child HMC-8 (to NI 0) at timestep 28
7072770 | HMC-15 | start gathering for flow 5 (from NI 0) to child HMC-14 (to NI 0) at timestep 28
7072770 | HMC-10 | start gathering for flow 13 (from NI 0) to child HMC-6 (to NI 0) at timestep 28
7072770 | HMC-9 | start gathering for flow 4 (from NI 0) to child HMC-13 (to NI 0) at timestep 28
7072770 | HMC-1 | start gathering for flow 11 (from NI 0) to child HMC-2 (to NI 0) at timestep 28
7072770 | HMC-0 | start gathering for flow 7 (from NI 0) to child HMC-1 (to NI 0) at timestep 28
7072770 | HMC-11 | start gathering for flow 6 (from NI 0) to child HMC-15 (to NI 0) at timestep 28
7072770 | HMC-8 | start gathering for flow 2 (from NI 0) to child HMC-4 (to NI 0) at timestep 28
7072770 | HMC-14 | start gathering for flow 9 (from NI 0) to child HMC-10 (to NI 0) at timestep 28
7255205 | HMC-4 | finishes gather for flow 3 (from NI 0) to child HMC-0 (to NI 0) at timestep 28
7255205 | HMC-5 | finishes gather for flow 8 (from NI 0) to child HMC-9 (to NI 0) at timestep 28
7255205 | HMC-2 | finishes gather for flow 15 (from NI 0) to child HMC-3 (to NI 0) at timestep 28
7255205 | HMC-3 | finishes gather for flow 14 (from NI 0) to child HMC-7 (to NI 0) at timestep 28
7255205 | HMC-11 | finishes gather for flow 6 (from NI 0) to child HMC-15 (to NI 0) at timestep 28
7255205 | HMC-12 | finishes gather for flow 1 (from NI 0) to child HMC-8 (to NI 0) at timestep 28
7255205 | HMC-15 | finishes gather for flow 5 (from NI 0) to child HMC-14 (to NI 0) at timestep 28
7255205 | HMC-9 | finishes gather for flow 4 (from NI 0) to child HMC-13 (to NI 0) at timestep 28
7255205 | HMC-0 | finishes gather for flow 7 (from NI 0) to child HMC-1 (to NI 0) at timestep 28
7255205 | HMC-1 | finishes gather for flow 11 (from NI 0) to child HMC-2 (to NI 0) at timestep 28
7255205 | HMC-8 | finishes gather for flow 2 (from NI 0) to child HMC-4 (to NI 0) at timestep 28
7255205 | HMC-10 | finishes gather for flow 13 (from NI 0) to child HMC-6 (to NI 0) at timestep 28
7255205 | HMC-14 | finishes gather for flow 9 (from NI 0) to child HMC-10 (to NI 0) at timestep 28
7255206 | HMC-13 | finishes gather for flow 0 (from NI 0) to child HMC-12 (to NI 0) at timestep 28
7255206 | HMC-7 | finishes gather for flow 10 (from NI 0) to child HMC-11 (to NI 0) at timestep 28
7255206 | HMC-6 | finishes gather for flow 12 (from NI 0) to child HMC-5 (to NI 0) at timestep 28
7256259 | HMC-13 | receives full gather for flow 4 from parent HMC-9
7256259 | HMC-7 | receives full gather for flow 14 from parent HMC-3
7256259 | HMC-6 | receives full gather for flow 13 from parent HMC-10
7256259 | HMC-4 | receives full gather for flow 2 from parent HMC-8
7256259 | HMC-5 | receives full gather for flow 12 from parent HMC-6
7256259 | HMC-2 | receives full gather for flow 11 from parent HMC-1
7256259 | HMC-3 | receives full gather for flow 15 from parent HMC-2
7256259 | HMC-11 | receives full gather for flow 10 from parent HMC-7
7256259 | HMC-12 | receives full gather for flow 0 from parent HMC-13
7256259 | HMC-15 | receives full gather for flow 6 from parent HMC-11
7256259 | HMC-9 | receives full gather for flow 8 from parent HMC-5
7256259 | HMC-1 | receives full gather for flow 7 from parent HMC-0
7256259 | HMC-0 | receives full gather for flow 3 from parent HMC-4
7256259 | HMC-8 | receives full gather for flow 1 from parent HMC-12
7256259 | HMC-10 | receives full gather for flow 9 from parent HMC-14
7256259 | HMC-14 | receives full gather for flow 5 from parent HMC-15
7256260 | HMC-13 | start gathering for flow 4 (from NI 0) to child HMC-12 (to NI 0) at timestep 29
7256260 | HMC-7 | start gathering for flow 14 (from NI 0) to child HMC-11 (to NI 0) at timestep 29
7256260 | HMC-6 | start gathering for flow 13 (from NI 0) to child HMC-5 (to NI 0) at timestep 29
7256260 | HMC-4 | start gathering for flow 2 (from NI 0) to child HMC-0 (to NI 0) at timestep 29
7256260 | HMC-5 | start gathering for flow 12 (from NI 0) to child HMC-9 (to NI 0) at timestep 29
7256260 | HMC-2 | start gathering for flow 11 (from NI 0) to child HMC-3 (to NI 0) at timestep 29
7256260 | HMC-3 | start gathering for flow 15 (from NI 0) to child HMC-7 (to NI 0) at timestep 29
7256260 | HMC-12 | start gathering for flow 0 (from NI 0) to child HMC-8 (to NI 0) at timestep 29
7256260 | HMC-15 | start gathering for flow 6 (from NI 0) to child HMC-14 (to NI 0) at timestep 29
7256260 | HMC-10 | start gathering for flow 9 (from NI 0) to child HMC-6 (to NI 0) at timestep 29
7256260 | HMC-9 | start gathering for flow 8 (from NI 0) to child HMC-13 (to NI 0) at timestep 29
7256260 | HMC-1 | start gathering for flow 7 (from NI 0) to child HMC-2 (to NI 0) at timestep 29
7256260 | HMC-0 | start gathering for flow 3 (from NI 0) to child HMC-1 (to NI 0) at timestep 29
7256260 | HMC-11 | start gathering for flow 10 (from NI 0) to child HMC-15 (to NI 0) at timestep 29
7256260 | HMC-8 | start gathering for flow 1 (from NI 0) to child HMC-4 (to NI 0) at timestep 29
7256260 | HMC-14 | start gathering for flow 5 (from NI 0) to child HMC-10 (to NI 0) at timestep 29
7438695 | HMC-4 | finishes gather for flow 2 (from NI 0) to child HMC-0 (to NI 0) at timestep 29
7438695 | HMC-5 | finishes gather for flow 12 (from NI 0) to child HMC-9 (to NI 0) at timestep 29
7438695 | HMC-2 | finishes gather for flow 11 (from NI 0) to child HMC-3 (to NI 0) at timestep 29
7438695 | HMC-3 | finishes gather for flow 15 (from NI 0) to child HMC-7 (to NI 0) at timestep 29
7438695 | HMC-11 | finishes gather for flow 10 (from NI 0) to child HMC-15 (to NI 0) at timestep 29
7438695 | HMC-12 | finishes gather for flow 0 (from NI 0) to child HMC-8 (to NI 0) at timestep 29
7438695 | HMC-15 | finishes gather for flow 6 (from NI 0) to child HMC-14 (to NI 0) at timestep 29
7438695 | HMC-9 | finishes gather for flow 8 (from NI 0) to child HMC-13 (to NI 0) at timestep 29
7438695 | HMC-0 | finishes gather for flow 3 (from NI 0) to child HMC-1 (to NI 0) at timestep 29
7438695 | HMC-1 | finishes gather for flow 7 (from NI 0) to child HMC-2 (to NI 0) at timestep 29
7438695 | HMC-8 | finishes gather for flow 1 (from NI 0) to child HMC-4 (to NI 0) at timestep 29
7438695 | HMC-10 | finishes gather for flow 9 (from NI 0) to child HMC-6 (to NI 0) at timestep 29
7438695 | HMC-14 | finishes gather for flow 5 (from NI 0) to child HMC-10 (to NI 0) at timestep 29
7438696 | HMC-13 | finishes gather for flow 4 (from NI 0) to child HMC-12 (to NI 0) at timestep 29
7438696 | HMC-7 | finishes gather for flow 14 (from NI 0) to child HMC-11 (to NI 0) at timestep 29
7438696 | HMC-6 | finishes gather for flow 13 (from NI 0) to child HMC-5 (to NI 0) at timestep 29
7439749 | HMC-13 | receives full gather for flow 8 from parent HMC-9
7439749 | HMC-7 | receives full gather for flow 15 from parent HMC-3
7439749 | HMC-6 | receives full gather for flow 9 from parent HMC-10
7439749 | HMC-4 | receives full gather for flow 1 from parent HMC-8
7439749 | HMC-5 | receives full gather for flow 13 from parent HMC-6
7439749 | HMC-2 | receives full gather for flow 7 from parent HMC-1
7439749 | HMC-3 | receives full gather for flow 11 from parent HMC-2
7439749 | HMC-11 | receives full gather for flow 14 from parent HMC-7
7439749 | HMC-12 | receives full gather for flow 4 from parent HMC-13
7439749 | HMC-15 | receives full gather for flow 10 from parent HMC-11
7439749 | HMC-9 | receives full gather for flow 12 from parent HMC-5
7439749 | HMC-1 | receives full gather for flow 3 from parent HMC-0
7439749 | HMC-0 | receives full gather for flow 2 from parent HMC-4
7439749 | HMC-8 | receives full gather for flow 0 from parent HMC-12
7439749 | HMC-10 | receives full gather for flow 5 from parent HMC-14
7439749 | HMC-14 | receives full gather for flow 6 from parent HMC-15
7439750 | HMC-13 | start gathering for flow 8 (from NI 0) to child HMC-12 (to NI 0) at timestep 30
7439750 | HMC-7 | start gathering for flow 15 (from NI 0) to child HMC-11 (to NI 0) at timestep 30
7439750 | HMC-6 | start gathering for flow 9 (from NI 0) to child HMC-5 (to NI 0) at timestep 30
7439750 | HMC-4 | start gathering for flow 1 (from NI 0) to child HMC-0 (to NI 0) at timestep 30
7439750 | HMC-5 | start gathering for flow 13 (from NI 0) to child HMC-9 (to NI 0) at timestep 30
7439750 | HMC-2 | start gathering for flow 7 (from NI 0) to child HMC-3 (to NI 0) at timestep 30
7439750 | HMC-3 | start gathering for flow 11 (from NI 0) to child HMC-7 (to NI 0) at timestep 30
7439750 | HMC-12 | start gathering for flow 4 (from NI 0) to child HMC-8 (to NI 0) at timestep 30
7439750 | HMC-15 | start gathering for flow 10 (from NI 0) to child HMC-14 (to NI 0) at timestep 30
7439750 | HMC-10 | start gathering for flow 5 (from NI 0) to child HMC-6 (to NI 0) at timestep 30
7439750 | HMC-9 | start gathering for flow 12 (from NI 0) to child HMC-13 (to NI 0) at timestep 30
7439750 | HMC-1 | start gathering for flow 3 (from NI 0) to child HMC-2 (to NI 0) at timestep 30
7439750 | HMC-0 | start gathering for flow 2 (from NI 0) to child HMC-1 (to NI 0) at timestep 30
7439750 | HMC-11 | start gathering for flow 14 (from NI 0) to child HMC-15 (to NI 0) at timestep 30
7439750 | HMC-8 | start gathering for flow 0 (from NI 0) to child HMC-4 (to NI 0) at timestep 30
7439750 | HMC-14 | start gathering for flow 6 (from NI 0) to child HMC-10 (to NI 0) at timestep 30
7622185 | HMC-4 | finishes gather for flow 1 (from NI 0) to child HMC-0 (to NI 0) at timestep 30
7622185 | HMC-4 | finishes all-gather (after send-gather-message)
7622185 | HMC-5 | finishes gather for flow 13 (from NI 0) to child HMC-9 (to NI 0) at timestep 30
7622185 | HMC-5 | finishes all-gather (after send-gather-message)
7622185 | HMC-2 | finishes gather for flow 7 (from NI 0) to child HMC-3 (to NI 0) at timestep 30
7622185 | HMC-2 | finishes all-gather (after send-gather-message)
7622185 | HMC-3 | finishes gather for flow 11 (from NI 0) to child HMC-7 (to NI 0) at timestep 30
7622185 | HMC-3 | finishes all-gather (after send-gather-message)
7622185 | HMC-11 | finishes gather for flow 14 (from NI 0) to child HMC-15 (to NI 0) at timestep 30
7622185 | HMC-11 | finishes all-gather (after send-gather-message)
7622185 | HMC-12 | finishes gather for flow 4 (from NI 0) to child HMC-8 (to NI 0) at timestep 30
7622185 | HMC-12 | finishes all-gather (after send-gather-message)
7622185 | HMC-15 | finishes gather for flow 10 (from NI 0) to child HMC-14 (to NI 0) at timestep 30
7622185 | HMC-15 | finishes all-gather (after send-gather-message)
7622185 | HMC-9 | finishes gather for flow 12 (from NI 0) to child HMC-13 (to NI 0) at timestep 30
7622185 | HMC-9 | finishes all-gather (after send-gather-message)
7622185 | HMC-0 | finishes gather for flow 2 (from NI 0) to child HMC-1 (to NI 0) at timestep 30
7622185 | HMC-0 | finishes all-gather (after send-gather-message)
7622185 | HMC-1 | finishes gather for flow 3 (from NI 0) to child HMC-2 (to NI 0) at timestep 30
7622185 | HMC-1 | finishes all-gather (after send-gather-message)
7622185 | HMC-8 | finishes gather for flow 0 (from NI 0) to child HMC-4 (to NI 0) at timestep 30
7622185 | HMC-8 | finishes all-gather (after send-gather-message)
7622185 | HMC-10 | finishes gather for flow 5 (from NI 0) to child HMC-6 (to NI 0) at timestep 30
7622185 | HMC-10 | finishes all-gather (after send-gather-message)
7622185 | HMC-14 | finishes gather for flow 6 (from NI 0) to child HMC-10 (to NI 0) at timestep 30
7622185 | HMC-14 | finishes all-gather (after send-gather-message)
7622186 | HMC-13 | finishes gather for flow 8 (from NI 0) to child HMC-12 (to NI 0) at timestep 30
7622186 | HMC-13 | finishes all-gather (after send-gather-message)
7622186 | HMC-7 | finishes gather for flow 15 (from NI 0) to child HMC-11 (to NI 0) at timestep 30
7622186 | HMC-7 | finishes all-gather (after send-gather-message)
7622186 | HMC-6 | finishes gather for flow 9 (from NI 0) to child HMC-5 (to NI 0) at timestep 30
7622186 | HMC-6 | finishes all-gather (after send-gather-message)
7623239 | HMC-13 | receives full gather for flow 12 from parent HMC-9
7623239 | HMC-13 | finishes all-gather (after recieving all-gather)
7623239 | HMC-7 | receives full gather for flow 11 from parent HMC-3
7623239 | HMC-7 | finishes all-gather (after recieving all-gather)
7623239 | HMC-6 | receives full gather for flow 5 from parent HMC-10
7623239 | HMC-6 | finishes all-gather (after recieving all-gather)
7623239 | HMC-4 | receives full gather for flow 0 from parent HMC-8
7623239 | HMC-4 | finishes all-gather (after recieving all-gather)
7623239 | HMC-5 | receives full gather for flow 9 from parent HMC-6
7623239 | HMC-5 | finishes all-gather (after recieving all-gather)
7623239 | HMC-2 | receives full gather for flow 3 from parent HMC-1
7623239 | HMC-2 | finishes all-gather (after recieving all-gather)
7623239 | HMC-3 | receives full gather for flow 7 from parent HMC-2
7623239 | HMC-3 | finishes all-gather (after recieving all-gather)
7623239 | HMC-11 | receives full gather for flow 15 from parent HMC-7
7623239 | HMC-11 | finishes all-gather (after recieving all-gather)
7623239 | HMC-12 | receives full gather for flow 8 from parent HMC-13
7623239 | HMC-12 | finishes all-gather (after recieving all-gather)
7623239 | HMC-15 | receives full gather for flow 14 from parent HMC-11
7623239 | HMC-15 | finishes all-gather (after recieving all-gather)
7623239 | HMC-9 | receives full gather for flow 13 from parent HMC-5
7623239 | HMC-9 | finishes all-gather (after recieving all-gather)
7623239 | HMC-1 | receives full gather for flow 2 from parent HMC-0
7623239 | HMC-1 | finishes all-gather (after recieving all-gather)
7623239 | HMC-0 | receives full gather for flow 1 from parent HMC-4
7623239 | HMC-0 | finishes all-gather (after recieving all-gather)
7623239 | HMC-8 | receives full gather for flow 4 from parent HMC-12
7623239 | HMC-8 | finishes all-gather (after recieving all-gather)
7623239 | HMC-10 | receives full gather for flow 6 from parent HMC-14
7623239 | HMC-10 | finishes all-gather (after recieving all-gather)
7623239 | HMC-14 | receives full gather for flow 10 from parent HMC-15
7623239 | HMC-14 | finishes all-gather (after recieving all-gather)

======== Simulation Summary ========
Training epoch runtime: 7623388 cycles
 - computation: 1795002 cycles (23.55%)
 - allreduce: 5828386 cycles (76.45%)
     - overlapped computation: 323520 cycles (4.24%)
     - pure communication: 5504866 cycles (72.21%)
Total number of messages: 5176320

