====================================================
******************* SCALE SIM **********************
====================================================
Array Size:    32 x 32
SRAM IFMAP:    524288
SRAM Filter:   524288
SRAM OFMAP:    262144
CSV file path: /home/farabi/study/research/multitree-sim/src/SCALE-Sim/topologies/mlperf/Resnet50.csv
Dataflow:      os
====================================================


Model loading ...
Model loading finished

NN model size: 25502912 parameters

Start a training epoch ...

Feed-Forward ...

Commencing run for Conv1
Average utilization : 98.97567067309872 %
Cycles for compute  : 110281 cycles

Commencing run for CB2a_1
Average utilization : 99.66873757455268 %
Cycles for compute  : 12576 cycles

Commencing run for CB2a_2
Average utilization : 99.01491497370655 %
Cycles for compute  : 106016 cycles

Commencing run for CB2a_3
Average utilization : 99.91703099169439 %
Cycles for compute  : 50207 cycles

Commencing run for CB2s
Average utilization : 99.91703099169439 %
Cycles for compute  : 50207 cycles

Commencing run for IB2b_1
Average utilization : 99.91703099169439 %
Cycles for compute  : 50208 cycles

Commencing run for IB2b_2
Average utilization : 99.01491497370655 %
Cycles for compute  : 106016 cycles

Commencing run for IB2b_3
Average utilization : 99.91703099169439 %
Cycles for compute  : 50207 cycles

Commencing run for IB2c_1
Average utilization : 99.91703099169439 %
Cycles for compute  : 50208 cycles

Commencing run for IB2c_2
Average utilization : 99.01491497370655 %
Cycles for compute  : 106016 cycles

Commencing run for IB2c_3
Average utilization : 99.91703099169439 %
Cycles for compute  : 50207 cycles

Commencing run for CB3a_1
Average utilization : 94.10118880135059 %
Cycles for compute  : 26655 cycles

Commencing run for CB3a_2
Average utilization : 95.98810940997663 %
Cycles for compute  : 101407 cycles

Commencing run for CB3a_3
Average utilization : 97.92900355741641 %
Cycles for compute  : 51231 cycles

Commencing run for CB3s
Average utilization : 94.19834584189924 %
Cycles for compute  : 106527 cycles

Commencing run for IB3b_1
Average utilization : 97.92900355741641 %
Cycles for compute  : 51231 cycles

Commencing run for IB3b_2
Average utilization : 95.98810940997663 %
Cycles for compute  : 101407 cycles

Commencing run for IB3b_3
Average utilization : 97.92900355741641 %
Cycles for compute  : 51231 cycles

Commencing run for IB3c_1
Average utilization : 97.92900355741641 %
Cycles for compute  : 51231 cycles

Commencing run for IB3c_2
Average utilization : 95.98810940997663 %
Cycles for compute  : 101407 cycles

Commencing run for IB3c_3
Average utilization : 97.92900355741641 %
Cycles for compute  : 51231 cycles

Commencing run for IB3d_1
Average utilization : 97.92900355741641 %
Cycles for compute  : 51231 cycles

Commencing run for IB3d_2
Average utilization : 95.98810940997663 %
Cycles for compute  : 101407 cycles

Commencing run for IB3d_3
Average utilization : 97.92900355741641 %
Cycles for compute  : 51231 cycles

Commencing run for CB4a_1
Average utilization : 87.38690070506567 %
Cycles for compute  : 28703 cycles

Commencing run for CB4a_2
Average utilization : 89.96323698896856 %
Cycles for compute  : 92191 cycles

Commencing run for CB4a_3
Average utilization : 87.44341979847493 %
Cycles for compute  : 57375 cycles

Commencing run for CB4s
Average utilization : 87.47170225453064 %
Cycles for compute  : 114719 cycles

Commencing run for IB4b_1
Average utilization : 87.44341979847493 %
Cycles for compute  : 57375 cycles

Commencing run for IB4b_2
Average utilization : 89.96323698896856 %
Cycles for compute  : 92191 cycles

Commencing run for IB4b_3
Average utilization : 87.44341979847493 %
Cycles for compute  : 57375 cycles

Commencing run for IB4c_1
Average utilization : 87.44341979847493 %
Cycles for compute  : 57375 cycles

Commencing run for IB4c_2
Average utilization : 89.96323698896856 %
Cycles for compute  : 92191 cycles

Commencing run for IB4c_3
Average utilization : 87.44341979847493 %
Cycles for compute  : 57375 cycles

Commencing run for IB4d_1
Average utilization : 87.44341979847493 %
Cycles for compute  : 57375 cycles

Commencing run for IB4d_2
Average utilization : 89.96323698896856 %
Cycles for compute  : 92191 cycles

Commencing run for IB4d_3
Average utilization : 87.44341979847493 %
Cycles for compute  : 57375 cycles

Commencing run for IB4e_1
Average utilization : 87.44341979847493 %
Cycles for compute  : 57375 cycles

Commencing run for IB4e_2
Average utilization : 89.96323698896856 %
Cycles for compute  : 92191 cycles

Commencing run for IB4e_3
Average utilization : 87.44341979847493 %
Cycles for compute  : 57375 cycles

Commencing run for IB4f_1
Average utilization : 87.44341979847493 %
Cycles for compute  : 57375 cycles

Commencing run for IB4f_2
Average utilization : 89.96323698896856 %
Cycles for compute  : 92191 cycles

Commencing run for IB4f_3
Average utilization : 87.44341979847493 %
Cycles for compute  : 57375 cycles

Commencing run for CB5a_1
Average utilization : 76.47146254458977 %
Cycles for compute  : 32799 cycles

Commencing run for CB5a_2
Average utilization : 78.08157309616453 %
Cycles for compute  : 73759 cycles

Commencing run for CB5a_3
Average utilization : 76.5169597510943 %
Cycles for compute  : 65567 cycles

Commencing run for CB5s
Average utilization : 76.5397244914304 %
Cycles for compute  : 131103 cycles

Commencing run for IB5b_1
Average utilization : 76.5169597510943 %
Cycles for compute  : 65567 cycles

Commencing run for IB5b_2
Average utilization : 78.08157309616453 %
Cycles for compute  : 73759 cycles

Commencing run for IB5b_3
Average utilization : 76.5169597510943 %
Cycles for compute  : 65567 cycles

Commencing run for IB5c_1
Average utilization : 76.5169597510943 %
Cycles for compute  : 65567 cycles

Commencing run for IB5c_2
Average utilization : 78.08157309616453 %
Cycles for compute  : 73759 cycles

Commencing run for IB5c_3
Average utilization : 76.5169597510943 %
Cycles for compute  : 65567 cycles

Commencing run for FC6
Average utilization : 3.0513901656164655 %
Cycles for compute  : 65544 cycles

Backward Propagation ...

Commencing back-propagation run for FC6
 - compute input-gradient:
 -- input-gradient: read cycles: 64031, write cycles: 65
 - compute filter-gradient:
 -- filter-gradient: read cycles: 2079, write cycles: 65568
 - input-gradient-cycles: 64031, uitl: 3.122730591432275 %
 - filter-gradent-cycles: 65568, uitl: 95.93986742424242 %
Average utilization : 6.041605609968235 %
Cycles for compute  : 129599 cycles


Commencing back-propagation run for IB5c_3
 - compute input-gradient:
 -- input-gradient: read cycles: 65567, write cycles: 816
 - compute filter-gradient:
 -- filter-gradient: read cycles: 50207, write cycles: 49168
 - input-gradient-cycles: 65567, uitl: 76.5169597510943 %
 - filter-gradent-cycles: 50207, uitl: 99.91703099169439 %
Average utilization : 86.66472502461693 %
Cycles for compute  : 115774 cycles


Commencing back-propagation run for IB5c_2
 - compute input-gradient:
 -- input-gradient: read cycles: 147487, write cycles: 824
 - compute filter-gradient:
 -- filter-gradient: read cycles: 57631, write cycles: 73784
 - input-gradient-cycles: 147487, uitl: 76.54225457158937 %
 - filter-gradent-cycles: 73784, uitl: 99.92771902274818 %
Average utilization : 83.1127540001365 %
Cycles for compute  : 221271 cycles


Commencing back-propagation run for IB5c_1
 - compute input-gradient:
 -- input-gradient: read cycles: 65567, write cycles: 3168
 - compute filter-gradient:
 -- filter-gradient: read cycles: 50207, write cycles: 49984
 - input-gradient-cycles: 65567, uitl: 76.5169597510943 %
 - filter-gradent-cycles: 50207, uitl: 99.91703099169439 %
Average utilization : 86.66472502461693 %
Cycles for compute  : 115774 cycles


Commencing back-propagation run for IB5b_3
 - compute input-gradient:
 -- input-gradient: read cycles: 65567, write cycles: 816
 - compute filter-gradient:
 -- filter-gradient: read cycles: 50207, write cycles: 49168
 - input-gradient-cycles: 65567, uitl: 76.5169597510943 %
 - filter-gradent-cycles: 50207, uitl: 99.91703099169439 %
Average utilization : 86.66472502461693 %
Cycles for compute  : 115774 cycles


Commencing back-propagation run for IB5b_2
 - compute input-gradient:
 -- input-gradient: read cycles: 147487, write cycles: 824
 - compute filter-gradient:
 -- filter-gradient: read cycles: 57631, write cycles: 73784
 - input-gradient-cycles: 147487, uitl: 76.54225457158937 %
 - filter-gradent-cycles: 73784, uitl: 99.92771902274818 %
Average utilization : 83.1127540001365 %
Cycles for compute  : 221271 cycles


Commencing back-propagation run for IB5b_1
 - compute input-gradient:
 -- input-gradient: read cycles: 65567, write cycles: 3168
 - compute filter-gradient:
 -- filter-gradient: read cycles: 50207, write cycles: 49984
 - input-gradient-cycles: 65567, uitl: 76.5169597510943 %
 - filter-gradent-cycles: 50207, uitl: 99.91703099169439 %
Average utilization : 86.66472502461693 %
Cycles for compute  : 115774 cycles


Commencing back-propagation run for CB5s
 - compute input-gradient:
 -- input-gradient: read cycles: 458783, write cycles: 6304
 - compute filter-gradient:
 -- filter-gradient: read cycles: 100383, write cycles: 99344
 - input-gradient-cycles: 458783, uitl: 87.49292412957215 %
 - filter-gradent-cycles: 100383, uitl: 99.95850268471753 %
Average utilization : 89.73077867026518 %
Cycles for compute  : 559166 cycles


Commencing back-propagation run for CB5a_3
 - compute input-gradient:
 -- input-gradient: read cycles: 65567, write cycles: 816
 - compute filter-gradient:
 -- filter-gradient: read cycles: 50207, write cycles: 49168
 - input-gradient-cycles: 65567, uitl: 76.5169597510943 %
 - filter-gradent-cycles: 50207, uitl: 99.91703099169439 %
Average utilization : 86.66472502461693 %
Cycles for compute  : 115774 cycles


Commencing back-propagation run for CB5a_2
 - compute input-gradient:
 -- input-gradient: read cycles: 147487, write cycles: 824
 - compute filter-gradient:
 -- filter-gradient: read cycles: 57631, write cycles: 73784
 - input-gradient-cycles: 147487, uitl: 76.54225457158937 %
 - filter-gradent-cycles: 73784, uitl: 99.92771902274818 %
Average utilization : 83.1127540001365 %
Cycles for compute  : 221271 cycles


Commencing back-propagation run for CB5a_1
 - compute input-gradient:
 -- input-gradient: read cycles: 114719, write cycles: 6304
 - compute filter-gradient:
 -- filter-gradient: read cycles: 25119, write cycles: 24896
 - input-gradient-cycles: 114719, uitl: 87.47170225453064 %
 - filter-gradent-cycles: 25119, uitl: 99.8341643775628 %
Average utilization : 89.69236249043536 %
Cycles for compute  : 139838 cycles


Commencing back-propagation run for IB4f_3
 - compute input-gradient:
 -- input-gradient: read cycles: 57375, write cycles: 1600
 - compute filter-gradient:
 -- filter-gradient: read cycles: 50207, write cycles: 49278
 - input-gradient-cycles: 57375, uitl: 87.44341979847493 %
 - filter-gradent-cycles: 50207, uitl: 99.91703099169439 %
Average utilization : 93.26467797528862 %
Cycles for compute  : 107582 cycles


Commencing back-propagation run for IB4f_2
 - compute input-gradient:
 -- input-gradient: read cycles: 129055, write cycles: 1622
 - compute filter-gradient:
 -- filter-gradient: read cycles: 82975, write cycles: 82790
 - input-gradient-cycles: 129055, uitl: 87.4748456932122 %
 - filter-gradent-cycles: 82975, uitl: 99.94979662548961 %
Average utilization : 92.35674473394096 %
Cycles for compute  : 212030 cycles


Commencing back-propagation run for IB4f_1
 - compute input-gradient:
 -- input-gradient: read cycles: 57375, write cycles: 6304
 - compute filter-gradient:
 -- filter-gradient: read cycles: 50207, write cycles: 50022
 - input-gradient-cycles: 57375, uitl: 87.44341979847493 %
 - filter-gradent-cycles: 50207, uitl: 99.91703099169439 %
Average utilization : 93.26467797528862 %
Cycles for compute  : 107582 cycles


Commencing back-propagation run for IB4e_3
 - compute input-gradient:
 -- input-gradient: read cycles: 57375, write cycles: 1600
 - compute filter-gradient:
 -- filter-gradient: read cycles: 50207, write cycles: 49278
 - input-gradient-cycles: 57375, uitl: 87.44341979847493 %
 - filter-gradent-cycles: 50207, uitl: 99.91703099169439 %
Average utilization : 93.26467797528862 %
Cycles for compute  : 107582 cycles


Commencing back-propagation run for IB4e_2
 - compute input-gradient:
 -- input-gradient: read cycles: 129055, write cycles: 1622
 - compute filter-gradient:
 -- filter-gradient: read cycles: 82975, write cycles: 82790
 - input-gradient-cycles: 129055, uitl: 87.4748456932122 %
 - filter-gradent-cycles: 82975, uitl: 99.94979662548961 %
Average utilization : 92.35674473394096 %
Cycles for compute  : 212030 cycles


Commencing back-propagation run for IB4e_1
 - compute input-gradient:
 -- input-gradient: read cycles: 57375, write cycles: 6304
 - compute filter-gradient:
 -- filter-gradient: read cycles: 50207, write cycles: 50022
 - input-gradient-cycles: 57375, uitl: 87.44341979847493 %
 - filter-gradent-cycles: 50207, uitl: 99.91703099169439 %
Average utilization : 93.26467797528862 %
Cycles for compute  : 107582 cycles


Commencing back-propagation run for IB4d_3
 - compute input-gradient:
 -- input-gradient: read cycles: 57375, write cycles: 1600
 - compute filter-gradient:
 -- filter-gradient: read cycles: 50207, write cycles: 49278
 - input-gradient-cycles: 57375, uitl: 87.44341979847493 %
 - filter-gradent-cycles: 50207, uitl: 99.91703099169439 %
Average utilization : 93.26467797528862 %
Cycles for compute  : 107582 cycles


Commencing back-propagation run for IB4d_2
 - compute input-gradient:
 -- input-gradient: read cycles: 129055, write cycles: 1622
 - compute filter-gradient:
 -- filter-gradient: read cycles: 82975, write cycles: 82790
 - input-gradient-cycles: 129055, uitl: 87.4748456932122 %
 - filter-gradent-cycles: 82975, uitl: 99.94979662548961 %
Average utilization : 92.35674473394096 %
Cycles for compute  : 212030 cycles


Commencing back-propagation run for IB4d_1
 - compute input-gradient:
 -- input-gradient: read cycles: 57375, write cycles: 6304
 - compute filter-gradient:
 -- filter-gradient: read cycles: 50207, write cycles: 50022
 - input-gradient-cycles: 57375, uitl: 87.44341979847493 %
 - filter-gradent-cycles: 50207, uitl: 99.91703099169439 %
Average utilization : 93.26467797528862 %
Cycles for compute  : 107582 cycles


Commencing back-propagation run for IB4c_3
 - compute input-gradient:
 -- input-gradient: read cycles: 57375, write cycles: 1600
 - compute filter-gradient:
 -- filter-gradient: read cycles: 50207, write cycles: 49278
 - input-gradient-cycles: 57375, uitl: 87.44341979847493 %
 - filter-gradent-cycles: 50207, uitl: 99.91703099169439 %
Average utilization : 93.26467797528862 %
Cycles for compute  : 107582 cycles


Commencing back-propagation run for IB4c_2
 - compute input-gradient:
 -- input-gradient: read cycles: 129055, write cycles: 1622
 - compute filter-gradient:
 -- filter-gradient: read cycles: 82975, write cycles: 82790
 - input-gradient-cycles: 129055, uitl: 87.4748456932122 %
 - filter-gradent-cycles: 82975, uitl: 99.94979662548961 %
Average utilization : 92.35674473394096 %
Cycles for compute  : 212030 cycles


Commencing back-propagation run for IB4c_1
 - compute input-gradient:
 -- input-gradient: read cycles: 57375, write cycles: 6304
 - compute filter-gradient:
 -- filter-gradient: read cycles: 50207, write cycles: 50022
 - input-gradient-cycles: 57375, uitl: 87.44341979847493 %
 - filter-gradent-cycles: 50207, uitl: 99.91703099169439 %
Average utilization : 93.26467797528862 %
Cycles for compute  : 107582 cycles


Commencing back-propagation run for IB4b_3
 - compute input-gradient:
 -- input-gradient: read cycles: 57375, write cycles: 1600
 - compute filter-gradient:
 -- filter-gradient: read cycles: 50207, write cycles: 49278
 - input-gradient-cycles: 57375, uitl: 87.44341979847493 %
 - filter-gradent-cycles: 50207, uitl: 99.91703099169439 %
Average utilization : 93.26467797528862 %
Cycles for compute  : 107582 cycles


Commencing back-propagation run for IB4b_2
 - compute input-gradient:
 -- input-gradient: read cycles: 129055, write cycles: 1622
 - compute filter-gradient:
 -- filter-gradient: read cycles: 82975, write cycles: 82790
 - input-gradient-cycles: 129055, uitl: 87.4748456932122 %
 - filter-gradent-cycles: 82975, uitl: 99.94979662548961 %
Average utilization : 92.35674473394096 %
Cycles for compute  : 212030 cycles


Commencing back-propagation run for IB4b_1
 - compute input-gradient:
 -- input-gradient: read cycles: 57375, write cycles: 6304
 - compute filter-gradient:
 -- filter-gradient: read cycles: 50207, write cycles: 50022
 - input-gradient-cycles: 57375, uitl: 87.44341979847493 %
 - filter-gradent-cycles: 50207, uitl: 99.91703099169439 %
Average utilization : 93.26467797528862 %
Cycles for compute  : 107582 cycles


Commencing back-propagation run for CB4s
 - compute input-gradient:
 -- input-gradient: read cycles: 409631, write cycles: 12576
 - compute filter-gradient:
 -- filter-gradient: read cycles: 100383, write cycles: 99454
 - input-gradient-cycles: 409631, uitl: 97.99112074342517 %
 - filter-gradent-cycles: 100383, uitl: 99.95850268471753 %
Average utilization : 98.378348743858 %
Cycles for compute  : 510014 cycles


Commencing back-propagation run for CB4a_3
 - compute input-gradient:
 -- input-gradient: read cycles: 57375, write cycles: 1600
 - compute filter-gradient:
 -- filter-gradient: read cycles: 50207, write cycles: 49278
 - input-gradient-cycles: 57375, uitl: 87.44341979847493 %
 - filter-gradent-cycles: 50207, uitl: 99.91703099169439 %
Average utilization : 93.26467797528862 %
Cycles for compute  : 107582 cycles


Commencing back-propagation run for CB4a_2
 - compute input-gradient:
 -- input-gradient: read cycles: 129055, write cycles: 1622
 - compute filter-gradient:
 -- filter-gradient: read cycles: 82975, write cycles: 82790
 - input-gradient-cycles: 129055, uitl: 87.4748456932122 %
 - filter-gradent-cycles: 82975, uitl: 99.94979662548961 %
Average utilization : 92.35674473394096 %
Cycles for compute  : 212030 cycles


Commencing back-propagation run for CB4a_1
 - compute input-gradient:
 -- input-gradient: read cycles: 102431, write cycles: 12576
 - compute filter-gradient:
 -- filter-gradient: read cycles: 25119, write cycles: 24934
 - input-gradient-cycles: 102431, uitl: 97.96449103542872 %
 - filter-gradent-cycles: 25119, uitl: 99.8341643775628 %
Average utilization : 98.33269428655429 %
Cycles for compute  : 127550 cycles


Commencing back-propagation run for IB3d_3
 - compute input-gradient:
 -- input-gradient: read cycles: 51231, write cycles: 3168
 - compute filter-gradient:
 -- filter-gradient: read cycles: 50207, write cycles: 49774
 - input-gradient-cycles: 51231, uitl: 97.92900355741641 %
 - filter-gradent-cycles: 50207, uitl: 99.91703099169439 %
Average utilization : 98.912982868846 %
Cycles for compute  : 101438 cycles


Commencing back-propagation run for IB3d_2
 - compute input-gradient:
 -- input-gradient: read cycles: 115231, write cycles: 3176
 - compute filter-gradient:
 -- filter-gradient: read cycles: 97375, write cycles: 97314
 - input-gradient-cycles: 115231, uitl: 97.96843541451518 %
 - filter-gradent-cycles: 97375, uitl: 99.95722079589217 %
Average utilization : 98.8793127016641 %
Cycles for compute  : 212606 cycles


Commencing back-propagation run for IB3d_1
 - compute input-gradient:
 -- input-gradient: read cycles: 51231, write cycles: 12576
 - compute filter-gradient:
 -- filter-gradient: read cycles: 50207, write cycles: 50146
 - input-gradient-cycles: 51231, uitl: 97.92900355741641 %
 - filter-gradent-cycles: 50207, uitl: 99.91703099169439 %
Average utilization : 98.912982868846 %
Cycles for compute  : 101438 cycles


Commencing back-propagation run for IB3c_3
 - compute input-gradient:
 -- input-gradient: read cycles: 51231, write cycles: 3168
 - compute filter-gradient:
 -- filter-gradient: read cycles: 50207, write cycles: 49774
 - input-gradient-cycles: 51231, uitl: 97.92900355741641 %
 - filter-gradent-cycles: 50207, uitl: 99.91703099169439 %
Average utilization : 98.912982868846 %
Cycles for compute  : 101438 cycles


Commencing back-propagation run for IB3c_2
 - compute input-gradient:
 -- input-gradient: read cycles: 115231, write cycles: 3176
 - compute filter-gradient:
 -- filter-gradient: read cycles: 97375, write cycles: 97314
 - input-gradient-cycles: 115231, uitl: 97.96843541451518 %
 - filter-gradent-cycles: 97375, uitl: 99.95722079589217 %
Average utilization : 98.8793127016641 %
Cycles for compute  : 212606 cycles


Commencing back-propagation run for IB3c_1
 - compute input-gradient:
 -- input-gradient: read cycles: 51231, write cycles: 12576
 - compute filter-gradient:
 -- filter-gradient: read cycles: 50207, write cycles: 50146
 - input-gradient-cycles: 51231, uitl: 97.92900355741641 %
 - filter-gradent-cycles: 50207, uitl: 99.91703099169439 %
Average utilization : 98.912982868846 %
Cycles for compute  : 101438 cycles


Commencing back-propagation run for IB3b_3
 - compute input-gradient:
 -- input-gradient: read cycles: 51231, write cycles: 3168
 - compute filter-gradient:
 -- filter-gradient: read cycles: 50207, write cycles: 49774
 - input-gradient-cycles: 51231, uitl: 97.92900355741641 %
 - filter-gradent-cycles: 50207, uitl: 99.91703099169439 %
Average utilization : 98.912982868846 %
Cycles for compute  : 101438 cycles


Commencing back-propagation run for IB3b_2
 - compute input-gradient:
 -- input-gradient: read cycles: 115231, write cycles: 3176
 - compute filter-gradient:
 -- filter-gradient: read cycles: 97375, write cycles: 97314
 - input-gradient-cycles: 115231, uitl: 97.96843541451518 %
 - filter-gradent-cycles: 97375, uitl: 99.95722079589217 %
Average utilization : 98.8793127016641 %
Cycles for compute  : 212606 cycles


Commencing back-propagation run for IB3b_1
 - compute input-gradient:
 -- input-gradient: read cycles: 51231, write cycles: 12576
 - compute filter-gradient:
 -- filter-gradient: read cycles: 50207, write cycles: 50146
 - input-gradient-cycles: 51231, uitl: 97.92900355741641 %
 - filter-gradent-cycles: 50207, uitl: 99.91703099169439 %
Average utilization : 98.912982868846 %
Cycles for compute  : 101438 cycles


Commencing back-propagation run for CB3s
 - compute input-gradient:
 -- input-gradient: read cycles: 401439, write cycles: 25120
 - compute filter-gradient:
 -- filter-gradient: read cycles: 100383, write cycles: 99950
 - input-gradient-cycles: 401439, uitl: 99.98962326779412 %
 - filter-gradent-cycles: 100383, uitl: 99.95850268471753 %
Average utilization : 99.9833979976964 %
Cycles for compute  : 501822 cycles


Commencing back-propagation run for CB3a_3
 - compute input-gradient:
 -- input-gradient: read cycles: 51231, write cycles: 3168
 - compute filter-gradient:
 -- filter-gradient: read cycles: 50207, write cycles: 49774
 - input-gradient-cycles: 51231, uitl: 97.92900355741641 %
 - filter-gradent-cycles: 50207, uitl: 99.91703099169439 %
Average utilization : 98.912982868846 %
Cycles for compute  : 101438 cycles


Commencing back-propagation run for CB3a_2
 - compute input-gradient:
 -- input-gradient: read cycles: 115231, write cycles: 3176
 - compute filter-gradient:
 -- filter-gradient: read cycles: 97375, write cycles: 97314
 - input-gradient-cycles: 115231, uitl: 97.96843541451518 %
 - filter-gradent-cycles: 97375, uitl: 99.95722079589217 %
Average utilization : 98.8793127016641 %
Cycles for compute  : 212606 cycles


Commencing back-propagation run for CB3a_1
 - compute input-gradient:
 -- input-gradient: read cycles: 100383, write cycles: 25120
 - compute filter-gradient:
 -- filter-gradient: read cycles: 25119, write cycles: 25058
 - input-gradient-cycles: 100383, uitl: 99.95850268471753 %
 - filter-gradent-cycles: 25119, uitl: 99.8341643775628 %
Average utilization : 99.93361659575146 %
Cycles for compute  : 125502 cycles


Commencing back-propagation run for IB2c_3
 - compute input-gradient:
 -- input-gradient: read cycles: 50207, write cycles: 6304
 - compute filter-gradient:
 -- filter-gradient: read cycles: 50207, write cycles: 50022
 - input-gradient-cycles: 50207, uitl: 99.91703099169439 %
 - filter-gradent-cycles: 50207, uitl: 99.91703099169439 %
Average utilization : 99.91703099169439 %
Cycles for compute  : 100414 cycles


Commencing back-propagation run for IB2c_2
 - compute input-gradient:
 -- input-gradient: read cycles: 112927, write cycles: 6312
 - compute filter-gradient:
 -- filter-gradient: read cycles: 105007, write cycles: 105008
 - input-gradient-cycles: 112927, uitl: 99.96311223179576 %
 - filter-gradent-cycles: 105008, uitl: 99.96033002561734 %
Average utilization : 99.96177168317013 %
Cycles for compute  : 217935 cycles


Commencing back-propagation run for IB2c_1
 - compute input-gradient:
 -- input-gradient: read cycles: 50207, write cycles: 25120
 - compute filter-gradient:
 -- filter-gradient: read cycles: 50207, write cycles: 50208
 - input-gradient-cycles: 50207, uitl: 99.91703099169439 %
 - filter-gradent-cycles: 50208, uitl: 99.91703099169439 %
Average utilization : 99.91703099169439 %
Cycles for compute  : 100415 cycles


Commencing back-propagation run for IB2b_3
 - compute input-gradient:
 -- input-gradient: read cycles: 50207, write cycles: 6304
 - compute filter-gradient:
 -- filter-gradient: read cycles: 50207, write cycles: 50022
 - input-gradient-cycles: 50207, uitl: 99.91703099169439 %
 - filter-gradent-cycles: 50207, uitl: 99.91703099169439 %
Average utilization : 99.91703099169439 %
Cycles for compute  : 100414 cycles


Commencing back-propagation run for IB2b_2
 - compute input-gradient:
 -- input-gradient: read cycles: 112927, write cycles: 6312
 - compute filter-gradient:
 -- filter-gradient: read cycles: 105007, write cycles: 105008
 - input-gradient-cycles: 112927, uitl: 99.96311223179576 %
 - filter-gradent-cycles: 105008, uitl: 99.96033002561734 %
Average utilization : 99.96177168317013 %
Cycles for compute  : 217935 cycles


Commencing back-propagation run for IB2b_1
 - compute input-gradient:
 -- input-gradient: read cycles: 50207, write cycles: 25120
 - compute filter-gradient:
 -- filter-gradient: read cycles: 50207, write cycles: 50208
 - input-gradient-cycles: 50207, uitl: 99.91703099169439 %
 - filter-gradent-cycles: 50208, uitl: 99.91703099169439 %
Average utilization : 99.91703099169439 %
Cycles for compute  : 100415 cycles


Commencing back-propagation run for CB2s
 - compute input-gradient:
 -- input-gradient: read cycles: 50207, write cycles: 6304
 - compute filter-gradient:
 -- filter-gradient: read cycles: 50207, write cycles: 50022
 - input-gradient-cycles: 50207, uitl: 99.91703099169439 %
 - filter-gradent-cycles: 50207, uitl: 99.91703099169439 %
Average utilization : 99.91703099169439 %
Cycles for compute  : 100414 cycles


Commencing back-propagation run for CB2a_3
 - compute input-gradient:
 -- input-gradient: read cycles: 50207, write cycles: 6304
 - compute filter-gradient:
 -- filter-gradient: read cycles: 50207, write cycles: 50022
 - input-gradient-cycles: 50207, uitl: 99.91703099169439 %
 - filter-gradent-cycles: 50207, uitl: 99.91703099169439 %
Average utilization : 99.91703099169439 %
Cycles for compute  : 100414 cycles


Commencing back-propagation run for CB2a_2
 - compute input-gradient:
 -- input-gradient: read cycles: 112927, write cycles: 6312
 - compute filter-gradient:
 -- filter-gradient: read cycles: 105007, write cycles: 105008
 - input-gradient-cycles: 112927, uitl: 99.96311223179576 %
 - filter-gradent-cycles: 105008, uitl: 99.96033002561734 %
Average utilization : 99.96177168317013 %
Cycles for compute  : 217935 cycles


Commencing back-propagation run for CB2a_1
 - compute input-gradient:
 -- input-gradient: read cycles: 12575, write cycles: 6304
 - compute filter-gradient:
 -- filter-gradient: read cycles: 12575, write cycles: 12576
 - input-gradient-cycles: 12575, uitl: 99.66873757455268 %
 - filter-gradent-cycles: 12576, uitl: 99.66873757455268 %
Average utilization : 99.66873757455268 %
Cycles for compute  : 25151 cycles


Commencing back-propagation run for Conv1
 - compute input-gradient:
 -- input-gradient: read cycles: 4917279, write cycles: 76895
 - compute filter-gradient:
 -- filter-gradient: read cycles: 118828, write cycles: 118842
 - input-gradient-cycles: 4917279, uitl: 9.374913093450667 %
 - filter-gradent-cycles: 118842, uitl: 91.85566204408893 %
Average utilization : 11.321063649089465 %
Cycles for compute  : 5036121 cycles

0 | HMC-15 | starts training, computation state: training, communication state: idle
0 | HMC-12 | starts training, computation state: training, communication state: idle
0 | HMC-7 | starts training, computation state: training, communication state: idle
0 | HMC-6 | starts training, computation state: training, communication state: idle
0 | HMC-10 | starts training, computation state: training, communication state: idle
0 | HMC-4 | starts training, computation state: training, communication state: idle
0 | HMC-5 | starts training, computation state: training, communication state: idle
0 | HMC-2 | starts training, computation state: training, communication state: idle
0 | HMC-3 | starts training, computation state: training, communication state: idle
0 | HMC-14 | starts training, computation state: training, communication state: idle
0 | HMC-9 | starts training, computation state: training, communication state: idle
0 | HMC-13 | starts training, computation state: training, communication state: idle
0 | HMC-1 | starts training, computation state: training, communication state: idle
0 | HMC-0 | starts training, computation state: training, communication state: idle
0 | HMC-8 | starts training, computation state: training, communication state: idle
0 | HMC-11 | starts training, computation state: training, communication state: idle
17415636 | HMC-15 finishes training, computation sate: idle, communication state: idle
17415636 | HMC-12 finishes training, computation sate: idle, communication state: idle
17415636 | HMC-7 finishes training, computation sate: idle, communication state: idle
17415636 | HMC-10 finishes training, computation sate: idle, communication state: idle
17415636 | HMC-6 finishes training, computation sate: idle, communication state: idle
17415636 | HMC-4 finishes training, computation sate: idle, communication state: idle
17415636 | HMC-5 finishes training, computation sate: idle, communication state: idle
17415636 | HMC-2 finishes training, computation sate: idle, communication state: idle
17415636 | HMC-3 finishes training, computation sate: idle, communication state: idle
17415636 | HMC-14 finishes training, computation sate: idle, communication state: idle
17415636 | HMC-9 finishes training, computation sate: idle, communication state: idle
17415636 | HMC-1 finishes training, computation sate: idle, communication state: idle
17415636 | HMC-0 finishes training, computation sate: idle, communication state: idle
17415636 | HMC-13 finishes training, computation sate: idle, communication state: idle
17415636 | HMC-8 finishes training, computation sate: idle, communication state: idle
17415636 | HMC-11 finishes training, computation sate: idle, communication state: idle
17415637 | HMC-15 | starts aggregation, computation state: aggregating, communication state: idle
17415637 | HMC-12 | starts aggregation, computation state: aggregating, communication state: idle
17415637 | HMC-7 | starts aggregation, computation state: aggregating, communication state: idle
17415637 | HMC-6 | starts aggregation, computation state: aggregating, communication state: idle
17415637 | HMC-10 | starts aggregation, computation state: aggregating, communication state: idle
17415637 | HMC-4 | starts aggregation, computation state: aggregating, communication state: idle
17415637 | HMC-5 | starts aggregation, computation state: aggregating, communication state: idle
17415637 | HMC-2 | starts aggregation, computation state: aggregating, communication state: idle
17415637 | HMC-3 | starts aggregation, computation state: aggregating, communication state: idle
17415637 | HMC-14 | starts aggregation, computation state: aggregating, communication state: idle
17415637 | HMC-9 | starts aggregation, computation state: aggregating, communication state: idle
17415637 | HMC-1 | starts aggregation, computation state: aggregating, communication state: idle
17415637 | HMC-0 | starts aggregation, computation state: aggregating, communication state: idle
17415637 | HMC-13 | starts aggregation, computation state: aggregating, communication state: idle
17415637 | HMC-8 | starts aggregation, computation state: aggregating, communication state: idle
17415637 | HMC-11 | starts aggregation, computation state: aggregating, communication state: idle
18212613 | HMC-15 | finishes aggregation , computation state: idle, communication state: reduce-scatter
18212613 | HMC-12 | finishes aggregation , computation state: idle, communication state: reduce-scatter
18212613 | HMC-7 | finishes aggregation , computation state: idle, communication state: reduce-scatter
18212613 | HMC-10 | finishes aggregation , computation state: idle, communication state: reduce-scatter
18212613 | HMC-6 | finishes aggregation , computation state: idle, communication state: reduce-scatter
18212613 | HMC-4 | finishes aggregation , computation state: idle, communication state: reduce-scatter
18212613 | HMC-5 | finishes aggregation , computation state: idle, communication state: reduce-scatter
18212613 | HMC-2 | finishes aggregation , computation state: idle, communication state: reduce-scatter
18212613 | HMC-3 | finishes aggregation , computation state: idle, communication state: reduce-scatter
18212613 | HMC-14 | finishes aggregation , computation state: idle, communication state: reduce-scatter
18212613 | HMC-9 | finishes aggregation , computation state: idle, communication state: reduce-scatter
18212613 | HMC-1 | finishes aggregation , computation state: idle, communication state: reduce-scatter
18212613 | HMC-0 | finishes aggregation , computation state: idle, communication state: reduce-scatter
18212613 | HMC-13 | finishes aggregation , computation state: idle, communication state: reduce-scatter
18212613 | HMC-8 | finishes aggregation , computation state: idle, communication state: reduce-scatter
18212613 | HMC-11 | finishes aggregation , computation state: idle, communication state: reduce-scatter
18212614 | HMC-15 | start reducing for flow 14 (from NI 0) to parent HMC-11 (to NI 0) at timestep 0
18212614 | HMC-12 | start reducing for flow 8 (from NI 0) to parent HMC-13 (to NI 0) at timestep 0
18212614 | HMC-7 | start reducing for flow 11 (from NI 0) to parent HMC-3 (to NI 0) at timestep 0
18212614 | HMC-6 | start reducing for flow 5 (from NI 0) to parent HMC-10 (to NI 0) at timestep 0
18212614 | HMC-10 | start reducing for flow 6 (from NI 0) to parent HMC-14 (to NI 0) at timestep 0
18212614 | HMC-4 | start reducing for flow 0 (from NI 0) to parent HMC-8 (to NI 0) at timestep 0
18212614 | HMC-5 | start reducing for flow 9 (from NI 0) to parent HMC-6 (to NI 0) at timestep 0
18212614 | HMC-2 | start reducing for flow 3 (from NI 0) to parent HMC-1 (to NI 0) at timestep 0
18212614 | HMC-3 | start reducing for flow 7 (from NI 0) to parent HMC-2 (to NI 0) at timestep 0
18212614 | HMC-14 | start reducing for flow 10 (from NI 0) to parent HMC-15 (to NI 0) at timestep 0
18212614 | HMC-9 | start reducing for flow 13 (from NI 0) to parent HMC-5 (to NI 0) at timestep 0
18212614 | HMC-1 | start reducing for flow 2 (from NI 0) to parent HMC-0 (to NI 0) at timestep 0
18212614 | HMC-0 | start reducing for flow 1 (from NI 0) to parent HMC-4 (to NI 0) at timestep 0
18212614 | HMC-13 | start reducing for flow 12 (from NI 0) to parent HMC-9 (to NI 0) at timestep 0
18212614 | HMC-8 | start reducing for flow 4 (from NI 0) to parent HMC-12 (to NI 0) at timestep 0
18212614 | HMC-11 | start reducing for flow 15 (from NI 0) to parent HMC-7 (to NI 0) at timestep 0
18635123 | HMC-8 | finishes reducing for flow 4 (from NI 0) to parent HMC-12 (to NI 0) at timestep 0
18635123 | HMC-11 | finishes reducing for flow 15 (from NI 0) to parent HMC-7 (to NI 0) at timestep 0
18635124 | HMC-15 | finishes reducing for flow 14 (from NI 0) to parent HMC-11 (to NI 0) at timestep 0
18635124 | HMC-12 | finishes reducing for flow 8 (from NI 0) to parent HMC-13 (to NI 0) at timestep 0
18635124 | HMC-7 | finishes reducing for flow 11 (from NI 0) to parent HMC-3 (to NI 0) at timestep 0
18635124 | HMC-10 | finishes reducing for flow 6 (from NI 0) to parent HMC-14 (to NI 0) at timestep 0
18635124 | HMC-6 | finishes reducing for flow 5 (from NI 0) to parent HMC-10 (to NI 0) at timestep 0
18635124 | HMC-4 | finishes reducing for flow 0 (from NI 0) to parent HMC-8 (to NI 0) at timestep 0
18635124 | HMC-5 | finishes reducing for flow 9 (from NI 0) to parent HMC-6 (to NI 0) at timestep 0
18635124 | HMC-2 | finishes reducing for flow 3 (from NI 0) to parent HMC-1 (to NI 0) at timestep 0
18635124 | HMC-3 | finishes reducing for flow 7 (from NI 0) to parent HMC-2 (to NI 0) at timestep 0
18635124 | HMC-14 | finishes reducing for flow 10 (from NI 0) to parent HMC-15 (to NI 0) at timestep 0
18635124 | HMC-9 | finishes reducing for flow 13 (from NI 0) to parent HMC-5 (to NI 0) at timestep 0
18635124 | HMC-1 | finishes reducing for flow 2 (from NI 0) to parent HMC-0 (to NI 0) at timestep 0
18635124 | HMC-0 | finishes reducing for flow 1 (from NI 0) to parent HMC-4 (to NI 0) at timestep 0
18635124 | HMC-13 | finishes reducing for flow 12 (from NI 0) to parent HMC-9 (to NI 0) at timestep 0
18636177 | HMC-15 | receives full reduce for flow 10 from child HMC-14
18636177 | HMC-12 | receives full reduce for flow 4 from child HMC-8
18636177 | HMC-7 | receives full reduce for flow 15 from child HMC-11
18636177 | HMC-6 | receives full reduce for flow 9 from child HMC-5
18636177 | HMC-10 | receives full reduce for flow 5 from child HMC-6
18636177 | HMC-4 | receives full reduce for flow 1 from child HMC-0
18636177 | HMC-5 | receives full reduce for flow 13 from child HMC-9
18636177 | HMC-2 | receives full reduce for flow 7 from child HMC-3
18636177 | HMC-3 | receives full reduce for flow 11 from child HMC-7
18636177 | HMC-14 | receives full reduce for flow 6 from child HMC-10
18636177 | HMC-9 | receives full reduce for flow 12 from child HMC-13
18636177 | HMC-13 | receives full reduce for flow 8 from child HMC-12
18636177 | HMC-1 | receives full reduce for flow 3 from child HMC-2
18636177 | HMC-0 | receives full reduce for flow 2 from child HMC-1
18636177 | HMC-8 | receives full reduce for flow 0 from child HMC-4
18636177 | HMC-11 | receives full reduce for flow 14 from child HMC-15
18636178 | HMC-15 | starts aggregation, computation state: aggregating, communication state: reduce-scatter
18636178 | HMC-12 | starts aggregation, computation state: aggregating, communication state: reduce-scatter
18636178 | HMC-7 | starts aggregation, computation state: aggregating, communication state: reduce-scatter
18636178 | HMC-10 | starts aggregation, computation state: aggregating, communication state: reduce-scatter
18636178 | HMC-6 | starts aggregation, computation state: aggregating, communication state: reduce-scatter
18636178 | HMC-4 | starts aggregation, computation state: aggregating, communication state: reduce-scatter
18636178 | HMC-5 | starts aggregation, computation state: aggregating, communication state: reduce-scatter
18636178 | HMC-2 | starts aggregation, computation state: aggregating, communication state: reduce-scatter
18636178 | HMC-3 | starts aggregation, computation state: aggregating, communication state: reduce-scatter
18636178 | HMC-14 | starts aggregation, computation state: aggregating, communication state: reduce-scatter
18636178 | HMC-9 | starts aggregation, computation state: aggregating, communication state: reduce-scatter
18636178 | HMC-1 | starts aggregation, computation state: aggregating, communication state: reduce-scatter
18636178 | HMC-0 | starts aggregation, computation state: aggregating, communication state: reduce-scatter
18636178 | HMC-13 | starts aggregation, computation state: aggregating, communication state: reduce-scatter
18636178 | HMC-8 | starts aggregation, computation state: aggregating, communication state: reduce-scatter
18636178 | HMC-11 | starts aggregation, computation state: aggregating, communication state: reduce-scatter
18686002 | HMC-15 | clear pending aggregation for flow 10 from child HMC-14
18686002 | HMC-15 | finishes aggregation , computation state: idle, communication state: reduce-scatter
18686002 | HMC-12 | clear pending aggregation for flow 4 from child HMC-8
18686002 | HMC-12 | finishes aggregation , computation state: idle, communication state: reduce-scatter
18686002 | HMC-7 | clear pending aggregation for flow 15 from child HMC-11
18686002 | HMC-7 | finishes aggregation , computation state: idle, communication state: reduce-scatter
18686002 | HMC-6 | clear pending aggregation for flow 9 from child HMC-5
18686002 | HMC-6 | finishes aggregation , computation state: idle, communication state: reduce-scatter
18686002 | HMC-10 | clear pending aggregation for flow 5 from child HMC-6
18686002 | HMC-10 | finishes aggregation , computation state: idle, communication state: reduce-scatter
18686002 | HMC-4 | clear pending aggregation for flow 1 from child HMC-0
18686002 | HMC-4 | finishes aggregation , computation state: idle, communication state: reduce-scatter
18686002 | HMC-5 | clear pending aggregation for flow 13 from child HMC-9
18686002 | HMC-5 | finishes aggregation , computation state: idle, communication state: reduce-scatter
18686002 | HMC-2 | clear pending aggregation for flow 7 from child HMC-3
18686002 | HMC-2 | finishes aggregation , computation state: idle, communication state: reduce-scatter
18686002 | HMC-3 | clear pending aggregation for flow 11 from child HMC-7
18686002 | HMC-3 | finishes aggregation , computation state: idle, communication state: reduce-scatter
18686002 | HMC-14 | clear pending aggregation for flow 6 from child HMC-10
18686002 | HMC-14 | finishes aggregation , computation state: idle, communication state: reduce-scatter
18686002 | HMC-9 | clear pending aggregation for flow 12 from child HMC-13
18686002 | HMC-9 | finishes aggregation , computation state: idle, communication state: reduce-scatter
18686002 | HMC-1 | clear pending aggregation for flow 3 from child HMC-2
18686002 | HMC-1 | finishes aggregation , computation state: idle, communication state: reduce-scatter
18686002 | HMC-0 | clear pending aggregation for flow 2 from child HMC-1
18686002 | HMC-0 | finishes aggregation , computation state: idle, communication state: reduce-scatter
18686002 | HMC-13 | clear pending aggregation for flow 8 from child HMC-12
18686002 | HMC-13 | finishes aggregation , computation state: idle, communication state: reduce-scatter
18686002 | HMC-8 | clear pending aggregation for flow 0 from child HMC-4
18686002 | HMC-8 | finishes aggregation , computation state: idle, communication state: reduce-scatter
18686002 | HMC-11 | clear pending aggregation for flow 14 from child HMC-15
18686002 | HMC-11 | finishes aggregation , computation state: idle, communication state: reduce-scatter
18686003 | HMC-15 | start reducing for flow 10 (from NI 0) to parent HMC-11 (to NI 0) at timestep 1
18686003 | HMC-12 | start reducing for flow 4 (from NI 0) to parent HMC-13 (to NI 0) at timestep 1
18686003 | HMC-7 | start reducing for flow 15 (from NI 0) to parent HMC-3 (to NI 0) at timestep 1
18686003 | HMC-10 | start reducing for flow 5 (from NI 0) to parent HMC-14 (to NI 0) at timestep 1
18686003 | HMC-6 | start reducing for flow 9 (from NI 0) to parent HMC-10 (to NI 0) at timestep 1
18686003 | HMC-4 | start reducing for flow 1 (from NI 0) to parent HMC-8 (to NI 0) at timestep 1
18686003 | HMC-5 | start reducing for flow 13 (from NI 0) to parent HMC-6 (to NI 0) at timestep 1
18686003 | HMC-2 | start reducing for flow 7 (from NI 0) to parent HMC-1 (to NI 0) at timestep 1
18686003 | HMC-3 | start reducing for flow 11 (from NI 0) to parent HMC-2 (to NI 0) at timestep 1
18686003 | HMC-14 | start reducing for flow 6 (from NI 0) to parent HMC-15 (to NI 0) at timestep 1
18686003 | HMC-9 | start reducing for flow 12 (from NI 0) to parent HMC-5 (to NI 0) at timestep 1
18686003 | HMC-1 | start reducing for flow 3 (from NI 0) to parent HMC-0 (to NI 0) at timestep 1
18686003 | HMC-0 | start reducing for flow 2 (from NI 0) to parent HMC-4 (to NI 0) at timestep 1
18686003 | HMC-13 | start reducing for flow 8 (from NI 0) to parent HMC-9 (to NI 0) at timestep 1
18686003 | HMC-8 | start reducing for flow 0 (from NI 0) to parent HMC-12 (to NI 0) at timestep 1
18686003 | HMC-11 | start reducing for flow 14 (from NI 0) to parent HMC-7 (to NI 0) at timestep 1
19108512 | HMC-8 | finishes reducing for flow 0 (from NI 0) to parent HMC-12 (to NI 0) at timestep 1
19108512 | HMC-11 | finishes reducing for flow 14 (from NI 0) to parent HMC-7 (to NI 0) at timestep 1
19108513 | HMC-15 | finishes reducing for flow 10 (from NI 0) to parent HMC-11 (to NI 0) at timestep 1
19108513 | HMC-12 | finishes reducing for flow 4 (from NI 0) to parent HMC-13 (to NI 0) at timestep 1
19108513 | HMC-7 | finishes reducing for flow 15 (from NI 0) to parent HMC-3 (to NI 0) at timestep 1
19108513 | HMC-6 | finishes reducing for flow 9 (from NI 0) to parent HMC-10 (to NI 0) at timestep 1
19108513 | HMC-10 | finishes reducing for flow 5 (from NI 0) to parent HMC-14 (to NI 0) at timestep 1
19108513 | HMC-4 | finishes reducing for flow 1 (from NI 0) to parent HMC-8 (to NI 0) at timestep 1
19108513 | HMC-5 | finishes reducing for flow 13 (from NI 0) to parent HMC-6 (to NI 0) at timestep 1
19108513 | HMC-2 | finishes reducing for flow 7 (from NI 0) to parent HMC-1 (to NI 0) at timestep 1
19108513 | HMC-3 | finishes reducing for flow 11 (from NI 0) to parent HMC-2 (to NI 0) at timestep 1
19108513 | HMC-14 | finishes reducing for flow 6 (from NI 0) to parent HMC-15 (to NI 0) at timestep 1
19108513 | HMC-9 | finishes reducing for flow 12 (from NI 0) to parent HMC-5 (to NI 0) at timestep 1
19108513 | HMC-1 | finishes reducing for flow 3 (from NI 0) to parent HMC-0 (to NI 0) at timestep 1
19108513 | HMC-0 | finishes reducing for flow 2 (from NI 0) to parent HMC-4 (to NI 0) at timestep 1
19108513 | HMC-13 | finishes reducing for flow 8 (from NI 0) to parent HMC-9 (to NI 0) at timestep 1
19109566 | HMC-15 | receives full reduce for flow 6 from child HMC-14
19109566 | HMC-12 | receives full reduce for flow 0 from child HMC-8
19109566 | HMC-7 | receives full reduce for flow 14 from child HMC-11
19109566 | HMC-6 | receives full reduce for flow 13 from child HMC-5
19109566 | HMC-10 | receives full reduce for flow 9 from child HMC-6
19109566 | HMC-4 | receives full reduce for flow 2 from child HMC-0
19109566 | HMC-5 | receives full reduce for flow 12 from child HMC-9
19109566 | HMC-2 | receives full reduce for flow 11 from child HMC-3
19109566 | HMC-3 | receives full reduce for flow 15 from child HMC-7
19109566 | HMC-14 | receives full reduce for flow 5 from child HMC-10
19109566 | HMC-9 | receives full reduce for flow 8 from child HMC-13
19109566 | HMC-13 | receives full reduce for flow 4 from child HMC-12
19109566 | HMC-1 | receives full reduce for flow 7 from child HMC-2
19109566 | HMC-0 | receives full reduce for flow 3 from child HMC-1
19109566 | HMC-8 | receives full reduce for flow 1 from child HMC-4
19109566 | HMC-11 | receives full reduce for flow 10 from child HMC-15
19109567 | HMC-15 | starts aggregation, computation state: aggregating, communication state: reduce-scatter
19109567 | HMC-12 | starts aggregation, computation state: aggregating, communication state: reduce-scatter
19109567 | HMC-7 | starts aggregation, computation state: aggregating, communication state: reduce-scatter
19109567 | HMC-10 | starts aggregation, computation state: aggregating, communication state: reduce-scatter
19109567 | HMC-6 | starts aggregation, computation state: aggregating, communication state: reduce-scatter
19109567 | HMC-4 | starts aggregation, computation state: aggregating, communication state: reduce-scatter
19109567 | HMC-5 | starts aggregation, computation state: aggregating, communication state: reduce-scatter
19109567 | HMC-2 | starts aggregation, computation state: aggregating, communication state: reduce-scatter
19109567 | HMC-3 | starts aggregation, computation state: aggregating, communication state: reduce-scatter
19109567 | HMC-14 | starts aggregation, computation state: aggregating, communication state: reduce-scatter
19109567 | HMC-9 | starts aggregation, computation state: aggregating, communication state: reduce-scatter
19109567 | HMC-1 | starts aggregation, computation state: aggregating, communication state: reduce-scatter
19109567 | HMC-0 | starts aggregation, computation state: aggregating, communication state: reduce-scatter
19109567 | HMC-13 | starts aggregation, computation state: aggregating, communication state: reduce-scatter
19109567 | HMC-8 | starts aggregation, computation state: aggregating, communication state: reduce-scatter
19109567 | HMC-11 | starts aggregation, computation state: aggregating, communication state: reduce-scatter
19159391 | HMC-15 | clear pending aggregation for flow 6 from child HMC-14
19159391 | HMC-15 | finishes aggregation , computation state: idle, communication state: reduce-scatter
19159391 | HMC-12 | clear pending aggregation for flow 0 from child HMC-8
19159391 | HMC-12 | finishes aggregation , computation state: idle, communication state: reduce-scatter
19159391 | HMC-7 | clear pending aggregation for flow 14 from child HMC-11
19159391 | HMC-7 | finishes aggregation , computation state: idle, communication state: reduce-scatter
19159391 | HMC-6 | clear pending aggregation for flow 13 from child HMC-5
19159391 | HMC-6 | finishes aggregation , computation state: idle, communication state: reduce-scatter
19159391 | HMC-10 | clear pending aggregation for flow 9 from child HMC-6
19159391 | HMC-10 | finishes aggregation , computation state: idle, communication state: reduce-scatter
19159391 | HMC-4 | clear pending aggregation for flow 2 from child HMC-0
19159391 | HMC-4 | finishes aggregation , computation state: idle, communication state: reduce-scatter
19159391 | HMC-5 | clear pending aggregation for flow 12 from child HMC-9
19159391 | HMC-5 | finishes aggregation , computation state: idle, communication state: reduce-scatter
19159391 | HMC-2 | clear pending aggregation for flow 11 from child HMC-3
19159391 | HMC-2 | finishes aggregation , computation state: idle, communication state: reduce-scatter
19159391 | HMC-3 | clear pending aggregation for flow 15 from child HMC-7
19159391 | HMC-3 | finishes aggregation , computation state: idle, communication state: reduce-scatter
19159391 | HMC-14 | clear pending aggregation for flow 5 from child HMC-10
19159391 | HMC-14 | finishes aggregation , computation state: idle, communication state: reduce-scatter
19159391 | HMC-9 | clear pending aggregation for flow 8 from child HMC-13
19159391 | HMC-9 | finishes aggregation , computation state: idle, communication state: reduce-scatter
19159391 | HMC-1 | clear pending aggregation for flow 7 from child HMC-2
19159391 | HMC-1 | finishes aggregation , computation state: idle, communication state: reduce-scatter
19159391 | HMC-0 | clear pending aggregation for flow 3 from child HMC-1
19159391 | HMC-0 | finishes aggregation , computation state: idle, communication state: reduce-scatter
19159391 | HMC-13 | clear pending aggregation for flow 4 from child HMC-12
19159391 | HMC-13 | finishes aggregation , computation state: idle, communication state: reduce-scatter
19159391 | HMC-8 | clear pending aggregation for flow 1 from child HMC-4
19159391 | HMC-8 | finishes aggregation , computation state: idle, communication state: reduce-scatter
19159391 | HMC-11 | clear pending aggregation for flow 10 from child HMC-15
19159391 | HMC-11 | finishes aggregation , computation state: idle, communication state: reduce-scatter
19159392 | HMC-15 | start reducing for flow 6 (from NI 0) to parent HMC-11 (to NI 0) at timestep 2
19159392 | HMC-12 | start reducing for flow 0 (from NI 0) to parent HMC-13 (to NI 0) at timestep 2
19159392 | HMC-7 | start reducing for flow 14 (from NI 0) to parent HMC-3 (to NI 0) at timestep 2
19159392 | HMC-10 | start reducing for flow 9 (from NI 0) to parent HMC-14 (to NI 0) at timestep 2
19159392 | HMC-6 | start reducing for flow 13 (from NI 0) to parent HMC-10 (to NI 0) at timestep 2
19159392 | HMC-4 | start reducing for flow 2 (from NI 0) to parent HMC-8 (to NI 0) at timestep 2
19159392 | HMC-5 | start reducing for flow 12 (from NI 0) to parent HMC-6 (to NI 0) at timestep 2
19159392 | HMC-2 | start reducing for flow 11 (from NI 0) to parent HMC-1 (to NI 0) at timestep 2
19159392 | HMC-3 | start reducing for flow 15 (from NI 0) to parent HMC-2 (to NI 0) at timestep 2
19159392 | HMC-14 | start reducing for flow 5 (from NI 0) to parent HMC-15 (to NI 0) at timestep 2
19159392 | HMC-9 | start reducing for flow 8 (from NI 0) to parent HMC-5 (to NI 0) at timestep 2
19159392 | HMC-1 | start reducing for flow 7 (from NI 0) to parent HMC-0 (to NI 0) at timestep 2
19159392 | HMC-0 | start reducing for flow 3 (from NI 0) to parent HMC-4 (to NI 0) at timestep 2
19159392 | HMC-13 | start reducing for flow 4 (from NI 0) to parent HMC-9 (to NI 0) at timestep 2
19159392 | HMC-8 | start reducing for flow 1 (from NI 0) to parent HMC-12 (to NI 0) at timestep 2
19159392 | HMC-11 | start reducing for flow 10 (from NI 0) to parent HMC-7 (to NI 0) at timestep 2
19581901 | HMC-8 | finishes reducing for flow 1 (from NI 0) to parent HMC-12 (to NI 0) at timestep 2
19581901 | HMC-11 | finishes reducing for flow 10 (from NI 0) to parent HMC-7 (to NI 0) at timestep 2
19581902 | HMC-15 | finishes reducing for flow 6 (from NI 0) to parent HMC-11 (to NI 0) at timestep 2
19581902 | HMC-12 | finishes reducing for flow 0 (from NI 0) to parent HMC-13 (to NI 0) at timestep 2
19581902 | HMC-7 | finishes reducing for flow 14 (from NI 0) to parent HMC-3 (to NI 0) at timestep 2
19581902 | HMC-6 | finishes reducing for flow 13 (from NI 0) to parent HMC-10 (to NI 0) at timestep 2
19581902 | HMC-10 | finishes reducing for flow 9 (from NI 0) to parent HMC-14 (to NI 0) at timestep 2
19581902 | HMC-4 | finishes reducing for flow 2 (from NI 0) to parent HMC-8 (to NI 0) at timestep 2
19581902 | HMC-5 | finishes reducing for flow 12 (from NI 0) to parent HMC-6 (to NI 0) at timestep 2
19581902 | HMC-2 | finishes reducing for flow 11 (from NI 0) to parent HMC-1 (to NI 0) at timestep 2
19581902 | HMC-3 | finishes reducing for flow 15 (from NI 0) to parent HMC-2 (to NI 0) at timestep 2
19581902 | HMC-14 | finishes reducing for flow 5 (from NI 0) to parent HMC-15 (to NI 0) at timestep 2
19581902 | HMC-9 | finishes reducing for flow 8 (from NI 0) to parent HMC-5 (to NI 0) at timestep 2
19581902 | HMC-1 | finishes reducing for flow 7 (from NI 0) to parent HMC-0 (to NI 0) at timestep 2
19581902 | HMC-0 | finishes reducing for flow 3 (from NI 0) to parent HMC-4 (to NI 0) at timestep 2
19581902 | HMC-13 | finishes reducing for flow 4 (from NI 0) to parent HMC-9 (to NI 0) at timestep 2
19582955 | HMC-15 | receives full reduce for flow 5 from child HMC-14
19582955 | HMC-12 | receives full reduce for flow 1 from child HMC-8
19582955 | HMC-7 | receives full reduce for flow 10 from child HMC-11
19582955 | HMC-6 | receives full reduce for flow 12 from child HMC-5
19582955 | HMC-10 | receives full reduce for flow 13 from child HMC-6
19582955 | HMC-4 | receives full reduce for flow 3 from child HMC-0
19582955 | HMC-5 | receives full reduce for flow 8 from child HMC-9
19582955 | HMC-2 | receives full reduce for flow 15 from child HMC-3
19582955 | HMC-3 | receives full reduce for flow 14 from child HMC-7
19582955 | HMC-14 | receives full reduce for flow 9 from child HMC-10
19582955 | HMC-9 | receives full reduce for flow 4 from child HMC-13
19582955 | HMC-13 | receives full reduce for flow 0 from child HMC-12
19582955 | HMC-1 | receives full reduce for flow 11 from child HMC-2
19582955 | HMC-0 | receives full reduce for flow 7 from child HMC-1
19582955 | HMC-8 | receives full reduce for flow 2 from child HMC-4
19582955 | HMC-11 | receives full reduce for flow 6 from child HMC-15
19582956 | HMC-15 | starts aggregation, computation state: aggregating, communication state: reduce-scatter
19582956 | HMC-12 | starts aggregation, computation state: aggregating, communication state: reduce-scatter
19582956 | HMC-7 | starts aggregation, computation state: aggregating, communication state: reduce-scatter
19582956 | HMC-10 | starts aggregation, computation state: aggregating, communication state: reduce-scatter
19582956 | HMC-6 | starts aggregation, computation state: aggregating, communication state: reduce-scatter
19582956 | HMC-4 | starts aggregation, computation state: aggregating, communication state: reduce-scatter
19582956 | HMC-5 | starts aggregation, computation state: aggregating, communication state: reduce-scatter
19582956 | HMC-2 | starts aggregation, computation state: aggregating, communication state: reduce-scatter
19582956 | HMC-3 | starts aggregation, computation state: aggregating, communication state: reduce-scatter
19582956 | HMC-14 | starts aggregation, computation state: aggregating, communication state: reduce-scatter
19582956 | HMC-9 | starts aggregation, computation state: aggregating, communication state: reduce-scatter
19582956 | HMC-1 | starts aggregation, computation state: aggregating, communication state: reduce-scatter
19582956 | HMC-0 | starts aggregation, computation state: aggregating, communication state: reduce-scatter
19582956 | HMC-13 | starts aggregation, computation state: aggregating, communication state: reduce-scatter
19582956 | HMC-8 | starts aggregation, computation state: aggregating, communication state: reduce-scatter
19582956 | HMC-11 | starts aggregation, computation state: aggregating, communication state: reduce-scatter
19632780 | HMC-15 | clear pending aggregation for flow 5 from child HMC-14
19632780 | HMC-15 | finishes aggregation , computation state: idle, communication state: reduce-scatter
19632780 | HMC-12 | clear pending aggregation for flow 1 from child HMC-8
19632780 | HMC-12 | finishes aggregation , computation state: idle, communication state: reduce-scatter
19632780 | HMC-7 | clear pending aggregation for flow 10 from child HMC-11
19632780 | HMC-7 | finishes aggregation , computation state: idle, communication state: reduce-scatter
19632780 | HMC-6 | clear pending aggregation for flow 12 from child HMC-5
19632780 | HMC-6 | finishes aggregation , computation state: idle, communication state: reduce-scatter
19632780 | HMC-10 | clear pending aggregation for flow 13 from child HMC-6
19632780 | HMC-10 | finishes aggregation , computation state: idle, communication state: reduce-scatter
19632780 | HMC-4 | clear pending aggregation for flow 3 from child HMC-0
19632780 | HMC-4 | finishes aggregation , computation state: idle, communication state: reduce-scatter
19632780 | HMC-5 | clear pending aggregation for flow 8 from child HMC-9
19632780 | HMC-5 | finishes aggregation , computation state: idle, communication state: reduce-scatter
19632780 | HMC-2 | clear pending aggregation for flow 15 from child HMC-3
19632780 | HMC-2 | finishes aggregation , computation state: idle, communication state: reduce-scatter
19632780 | HMC-3 | clear pending aggregation for flow 14 from child HMC-7
19632780 | HMC-3 | finishes aggregation , computation state: idle, communication state: reduce-scatter
19632780 | HMC-14 | clear pending aggregation for flow 9 from child HMC-10
19632780 | HMC-14 | finishes aggregation , computation state: idle, communication state: reduce-scatter
19632780 | HMC-9 | clear pending aggregation for flow 4 from child HMC-13
19632780 | HMC-9 | finishes aggregation , computation state: idle, communication state: reduce-scatter
19632780 | HMC-1 | clear pending aggregation for flow 11 from child HMC-2
19632780 | HMC-1 | finishes aggregation , computation state: idle, communication state: reduce-scatter
19632780 | HMC-0 | clear pending aggregation for flow 7 from child HMC-1
19632780 | HMC-0 | finishes aggregation , computation state: idle, communication state: reduce-scatter
19632780 | HMC-13 | clear pending aggregation for flow 0 from child HMC-12
19632780 | HMC-13 | finishes aggregation , computation state: idle, communication state: reduce-scatter
19632780 | HMC-8 | clear pending aggregation for flow 2 from child HMC-4
19632780 | HMC-8 | finishes aggregation , computation state: idle, communication state: reduce-scatter
19632780 | HMC-11 | clear pending aggregation for flow 6 from child HMC-15
19632780 | HMC-11 | finishes aggregation , computation state: idle, communication state: reduce-scatter
19632781 | HMC-15 | start reducing for flow 5 (from NI 0) to parent HMC-11 (to NI 0) at timestep 3
19632781 | HMC-12 | start reducing for flow 1 (from NI 0) to parent HMC-13 (to NI 0) at timestep 3
19632781 | HMC-7 | start reducing for flow 10 (from NI 0) to parent HMC-3 (to NI 0) at timestep 3
19632781 | HMC-10 | start reducing for flow 13 (from NI 0) to parent HMC-14 (to NI 0) at timestep 3
19632781 | HMC-6 | start reducing for flow 12 (from NI 0) to parent HMC-10 (to NI 0) at timestep 3
19632781 | HMC-4 | start reducing for flow 3 (from NI 0) to parent HMC-8 (to NI 0) at timestep 3
19632781 | HMC-5 | start reducing for flow 8 (from NI 0) to parent HMC-6 (to NI 0) at timestep 3
19632781 | HMC-2 | start reducing for flow 15 (from NI 0) to parent HMC-1 (to NI 0) at timestep 3
19632781 | HMC-3 | start reducing for flow 14 (from NI 0) to parent HMC-2 (to NI 0) at timestep 3
19632781 | HMC-14 | start reducing for flow 9 (from NI 0) to parent HMC-15 (to NI 0) at timestep 3
19632781 | HMC-9 | start reducing for flow 4 (from NI 0) to parent HMC-5 (to NI 0) at timestep 3
19632781 | HMC-1 | start reducing for flow 11 (from NI 0) to parent HMC-0 (to NI 0) at timestep 3
19632781 | HMC-0 | start reducing for flow 7 (from NI 0) to parent HMC-4 (to NI 0) at timestep 3
19632781 | HMC-13 | start reducing for flow 0 (from NI 0) to parent HMC-9 (to NI 0) at timestep 3
19632781 | HMC-8 | start reducing for flow 2 (from NI 0) to parent HMC-12 (to NI 0) at timestep 3
19632781 | HMC-11 | start reducing for flow 6 (from NI 0) to parent HMC-7 (to NI 0) at timestep 3
20055290 | HMC-8 | finishes reducing for flow 2 (from NI 0) to parent HMC-12 (to NI 0) at timestep 3
20055290 | HMC-11 | finishes reducing for flow 6 (from NI 0) to parent HMC-7 (to NI 0) at timestep 3
20055291 | HMC-15 | finishes reducing for flow 5 (from NI 0) to parent HMC-11 (to NI 0) at timestep 3
20055291 | HMC-12 | finishes reducing for flow 1 (from NI 0) to parent HMC-13 (to NI 0) at timestep 3
20055291 | HMC-7 | finishes reducing for flow 10 (from NI 0) to parent HMC-3 (to NI 0) at timestep 3
20055291 | HMC-6 | finishes reducing for flow 12 (from NI 0) to parent HMC-10 (to NI 0) at timestep 3
20055291 | HMC-10 | finishes reducing for flow 13 (from NI 0) to parent HMC-14 (to NI 0) at timestep 3
20055291 | HMC-4 | finishes reducing for flow 3 (from NI 0) to parent HMC-8 (to NI 0) at timestep 3
20055291 | HMC-5 | finishes reducing for flow 8 (from NI 0) to parent HMC-6 (to NI 0) at timestep 3
20055291 | HMC-2 | finishes reducing for flow 15 (from NI 0) to parent HMC-1 (to NI 0) at timestep 3
20055291 | HMC-3 | finishes reducing for flow 14 (from NI 0) to parent HMC-2 (to NI 0) at timestep 3
20055291 | HMC-14 | finishes reducing for flow 9 (from NI 0) to parent HMC-15 (to NI 0) at timestep 3
20055291 | HMC-9 | finishes reducing for flow 4 (from NI 0) to parent HMC-5 (to NI 0) at timestep 3
20055291 | HMC-1 | finishes reducing for flow 11 (from NI 0) to parent HMC-0 (to NI 0) at timestep 3
20055291 | HMC-0 | finishes reducing for flow 7 (from NI 0) to parent HMC-4 (to NI 0) at timestep 3
20055291 | HMC-13 | finishes reducing for flow 0 (from NI 0) to parent HMC-9 (to NI 0) at timestep 3
20056344 | HMC-15 | receives full reduce for flow 9 from child HMC-14
20056344 | HMC-12 | receives full reduce for flow 2 from child HMC-8
20056344 | HMC-7 | receives full reduce for flow 6 from child HMC-11
20056344 | HMC-6 | receives full reduce for flow 8 from child HMC-5
20056344 | HMC-10 | receives full reduce for flow 12 from child HMC-6
20056344 | HMC-4 | receives full reduce for flow 7 from child HMC-0
20056344 | HMC-5 | receives full reduce for flow 4 from child HMC-9
20056344 | HMC-2 | receives full reduce for flow 14 from child HMC-3
20056344 | HMC-3 | receives full reduce for flow 10 from child HMC-7
20056344 | HMC-14 | receives full reduce for flow 13 from child HMC-10
20056344 | HMC-9 | receives full reduce for flow 0 from child HMC-13
20056344 | HMC-13 | receives full reduce for flow 1 from child HMC-12
20056344 | HMC-1 | receives full reduce for flow 15 from child HMC-2
20056344 | HMC-0 | receives full reduce for flow 11 from child HMC-1
20056344 | HMC-8 | receives full reduce for flow 3 from child HMC-4
20056344 | HMC-11 | receives full reduce for flow 5 from child HMC-15
20056345 | HMC-15 | starts aggregation, computation state: aggregating, communication state: reduce-scatter
20056345 | HMC-12 | starts aggregation, computation state: aggregating, communication state: reduce-scatter
20056345 | HMC-7 | starts aggregation, computation state: aggregating, communication state: reduce-scatter
20056345 | HMC-10 | starts aggregation, computation state: aggregating, communication state: reduce-scatter
20056345 | HMC-6 | starts aggregation, computation state: aggregating, communication state: reduce-scatter
20056345 | HMC-4 | starts aggregation, computation state: aggregating, communication state: reduce-scatter
20056345 | HMC-5 | starts aggregation, computation state: aggregating, communication state: reduce-scatter
20056345 | HMC-2 | starts aggregation, computation state: aggregating, communication state: reduce-scatter
20056345 | HMC-3 | starts aggregation, computation state: aggregating, communication state: reduce-scatter
20056345 | HMC-14 | starts aggregation, computation state: aggregating, communication state: reduce-scatter
20056345 | HMC-9 | starts aggregation, computation state: aggregating, communication state: reduce-scatter
20056345 | HMC-1 | starts aggregation, computation state: aggregating, communication state: reduce-scatter
20056345 | HMC-0 | starts aggregation, computation state: aggregating, communication state: reduce-scatter
20056345 | HMC-13 | starts aggregation, computation state: aggregating, communication state: reduce-scatter
20056345 | HMC-8 | starts aggregation, computation state: aggregating, communication state: reduce-scatter
20056345 | HMC-11 | starts aggregation, computation state: aggregating, communication state: reduce-scatter
20106169 | HMC-15 | clear pending aggregation for flow 9 from child HMC-14
20106169 | HMC-15 | finishes aggregation , computation state: idle, communication state: reduce-scatter
20106169 | HMC-12 | clear pending aggregation for flow 2 from child HMC-8
20106169 | HMC-12 | finishes aggregation , computation state: idle, communication state: reduce-scatter
20106169 | HMC-7 | clear pending aggregation for flow 6 from child HMC-11
20106169 | HMC-7 | finishes aggregation , computation state: idle, communication state: reduce-scatter
20106169 | HMC-6 | clear pending aggregation for flow 8 from child HMC-5
20106169 | HMC-6 | finishes aggregation , computation state: idle, communication state: reduce-scatter
20106169 | HMC-10 | clear pending aggregation for flow 12 from child HMC-6
20106169 | HMC-10 | finishes aggregation , computation state: idle, communication state: reduce-scatter
20106169 | HMC-4 | clear pending aggregation for flow 7 from child HMC-0
20106169 | HMC-4 | finishes aggregation , computation state: idle, communication state: reduce-scatter
20106169 | HMC-5 | clear pending aggregation for flow 4 from child HMC-9
20106169 | HMC-5 | finishes aggregation , computation state: idle, communication state: reduce-scatter
20106169 | HMC-2 | clear pending aggregation for flow 14 from child HMC-3
20106169 | HMC-2 | finishes aggregation , computation state: idle, communication state: reduce-scatter
20106169 | HMC-3 | clear pending aggregation for flow 10 from child HMC-7
20106169 | HMC-3 | finishes aggregation , computation state: idle, communication state: reduce-scatter
20106169 | HMC-14 | clear pending aggregation for flow 13 from child HMC-10
20106169 | HMC-14 | finishes aggregation , computation state: idle, communication state: reduce-scatter
20106169 | HMC-9 | clear pending aggregation for flow 0 from child HMC-13
20106169 | HMC-9 | finishes aggregation , computation state: idle, communication state: reduce-scatter
20106169 | HMC-1 | clear pending aggregation for flow 15 from child HMC-2
20106169 | HMC-1 | finishes aggregation , computation state: idle, communication state: reduce-scatter
20106169 | HMC-0 | clear pending aggregation for flow 11 from child HMC-1
20106169 | HMC-0 | finishes aggregation , computation state: idle, communication state: reduce-scatter
20106169 | HMC-13 | clear pending aggregation for flow 1 from child HMC-12
20106169 | HMC-13 | finishes aggregation , computation state: idle, communication state: reduce-scatter
20106169 | HMC-8 | clear pending aggregation for flow 3 from child HMC-4
20106169 | HMC-8 | finishes aggregation , computation state: idle, communication state: reduce-scatter
20106169 | HMC-11 | clear pending aggregation for flow 5 from child HMC-15
20106169 | HMC-11 | finishes aggregation , computation state: idle, communication state: reduce-scatter
20106170 | HMC-15 | start reducing for flow 9 (from NI 0) to parent HMC-11 (to NI 0) at timestep 4
20106170 | HMC-12 | start reducing for flow 2 (from NI 0) to parent HMC-13 (to NI 0) at timestep 4
20106170 | HMC-7 | start reducing for flow 6 (from NI 0) to parent HMC-3 (to NI 0) at timestep 4
20106170 | HMC-10 | start reducing for flow 12 (from NI 0) to parent HMC-14 (to NI 0) at timestep 4
20106170 | HMC-6 | start reducing for flow 8 (from NI 0) to parent HMC-10 (to NI 0) at timestep 4
20106170 | HMC-4 | start reducing for flow 7 (from NI 0) to parent HMC-8 (to NI 0) at timestep 4
20106170 | HMC-5 | start reducing for flow 4 (from NI 0) to parent HMC-6 (to NI 0) at timestep 4
20106170 | HMC-2 | start reducing for flow 14 (from NI 0) to parent HMC-1 (to NI 0) at timestep 4
20106170 | HMC-3 | start reducing for flow 10 (from NI 0) to parent HMC-2 (to NI 0) at timestep 4
20106170 | HMC-14 | start reducing for flow 13 (from NI 0) to parent HMC-15 (to NI 0) at timestep 4
20106170 | HMC-9 | start reducing for flow 0 (from NI 0) to parent HMC-5 (to NI 0) at timestep 4
20106170 | HMC-1 | start reducing for flow 15 (from NI 0) to parent HMC-0 (to NI 0) at timestep 4
20106170 | HMC-0 | start reducing for flow 11 (from NI 0) to parent HMC-4 (to NI 0) at timestep 4
20106170 | HMC-13 | start reducing for flow 1 (from NI 0) to parent HMC-9 (to NI 0) at timestep 4
20106170 | HMC-8 | start reducing for flow 3 (from NI 0) to parent HMC-12 (to NI 0) at timestep 4
20106170 | HMC-11 | start reducing for flow 5 (from NI 0) to parent HMC-7 (to NI 0) at timestep 4
20528679 | HMC-8 | finishes reducing for flow 3 (from NI 0) to parent HMC-12 (to NI 0) at timestep 4
20528679 | HMC-11 | finishes reducing for flow 5 (from NI 0) to parent HMC-7 (to NI 0) at timestep 4
20528680 | HMC-15 | finishes reducing for flow 9 (from NI 0) to parent HMC-11 (to NI 0) at timestep 4
20528680 | HMC-12 | finishes reducing for flow 2 (from NI 0) to parent HMC-13 (to NI 0) at timestep 4
20528680 | HMC-7 | finishes reducing for flow 6 (from NI 0) to parent HMC-3 (to NI 0) at timestep 4
20528680 | HMC-6 | finishes reducing for flow 8 (from NI 0) to parent HMC-10 (to NI 0) at timestep 4
20528680 | HMC-10 | finishes reducing for flow 12 (from NI 0) to parent HMC-14 (to NI 0) at timestep 4
20528680 | HMC-4 | finishes reducing for flow 7 (from NI 0) to parent HMC-8 (to NI 0) at timestep 4
20528680 | HMC-5 | finishes reducing for flow 4 (from NI 0) to parent HMC-6 (to NI 0) at timestep 4
20528680 | HMC-2 | finishes reducing for flow 14 (from NI 0) to parent HMC-1 (to NI 0) at timestep 4
20528680 | HMC-3 | finishes reducing for flow 10 (from NI 0) to parent HMC-2 (to NI 0) at timestep 4
20528680 | HMC-14 | finishes reducing for flow 13 (from NI 0) to parent HMC-15 (to NI 0) at timestep 4
20528680 | HMC-9 | finishes reducing for flow 0 (from NI 0) to parent HMC-5 (to NI 0) at timestep 4
20528680 | HMC-1 | finishes reducing for flow 15 (from NI 0) to parent HMC-0 (to NI 0) at timestep 4
20528680 | HMC-0 | finishes reducing for flow 11 (from NI 0) to parent HMC-4 (to NI 0) at timestep 4
20528680 | HMC-13 | finishes reducing for flow 1 (from NI 0) to parent HMC-9 (to NI 0) at timestep 4
20529733 | HMC-15 | receives full reduce for flow 13 from child HMC-14
20529733 | HMC-12 | receives full reduce for flow 3 from child HMC-8
20529733 | HMC-7 | receives full reduce for flow 5 from child HMC-11
20529733 | HMC-6 | receives full reduce for flow 4 from child HMC-5
20529733 | HMC-10 | receives full reduce for flow 8 from child HMC-6
20529733 | HMC-4 | receives full reduce for flow 11 from child HMC-0
20529733 | HMC-5 | receives full reduce for flow 0 from child HMC-9
20529733 | HMC-2 | receives full reduce for flow 10 from child HMC-3
20529733 | HMC-3 | receives full reduce for flow 6 from child HMC-7
20529733 | HMC-14 | receives full reduce for flow 12 from child HMC-10
20529733 | HMC-9 | receives full reduce for flow 1 from child HMC-13
20529733 | HMC-13 | receives full reduce for flow 2 from child HMC-12
20529733 | HMC-1 | receives full reduce for flow 14 from child HMC-2
20529733 | HMC-0 | receives full reduce for flow 15 from child HMC-1
20529733 | HMC-8 | receives full reduce for flow 7 from child HMC-4
20529733 | HMC-11 | receives full reduce for flow 9 from child HMC-15
20529734 | HMC-15 | starts aggregation, computation state: aggregating, communication state: reduce-scatter
20529734 | HMC-12 | starts aggregation, computation state: aggregating, communication state: reduce-scatter
20529734 | HMC-7 | starts aggregation, computation state: aggregating, communication state: reduce-scatter
20529734 | HMC-10 | starts aggregation, computation state: aggregating, communication state: reduce-scatter
20529734 | HMC-6 | starts aggregation, computation state: aggregating, communication state: reduce-scatter
20529734 | HMC-4 | starts aggregation, computation state: aggregating, communication state: reduce-scatter
20529734 | HMC-5 | starts aggregation, computation state: aggregating, communication state: reduce-scatter
20529734 | HMC-2 | starts aggregation, computation state: aggregating, communication state: reduce-scatter
20529734 | HMC-3 | starts aggregation, computation state: aggregating, communication state: reduce-scatter
20529734 | HMC-14 | starts aggregation, computation state: aggregating, communication state: reduce-scatter
20529734 | HMC-9 | starts aggregation, computation state: aggregating, communication state: reduce-scatter
20529734 | HMC-1 | starts aggregation, computation state: aggregating, communication state: reduce-scatter
20529734 | HMC-0 | starts aggregation, computation state: aggregating, communication state: reduce-scatter
20529734 | HMC-13 | starts aggregation, computation state: aggregating, communication state: reduce-scatter
20529734 | HMC-8 | starts aggregation, computation state: aggregating, communication state: reduce-scatter
20529734 | HMC-11 | starts aggregation, computation state: aggregating, communication state: reduce-scatter
20579558 | HMC-15 | clear pending aggregation for flow 13 from child HMC-14
20579558 | HMC-15 | finishes aggregation , computation state: idle, communication state: reduce-scatter
20579558 | HMC-12 | clear pending aggregation for flow 3 from child HMC-8
20579558 | HMC-12 | finishes aggregation , computation state: idle, communication state: reduce-scatter
20579558 | HMC-7 | clear pending aggregation for flow 5 from child HMC-11
20579558 | HMC-7 | finishes aggregation , computation state: idle, communication state: reduce-scatter
20579558 | HMC-6 | clear pending aggregation for flow 4 from child HMC-5
20579558 | HMC-6 | finishes aggregation , computation state: idle, communication state: reduce-scatter
20579558 | HMC-10 | clear pending aggregation for flow 8 from child HMC-6
20579558 | HMC-10 | finishes aggregation , computation state: idle, communication state: reduce-scatter
20579558 | HMC-4 | clear pending aggregation for flow 11 from child HMC-0
20579558 | HMC-4 | finishes aggregation , computation state: idle, communication state: reduce-scatter
20579558 | HMC-5 | clear pending aggregation for flow 0 from child HMC-9
20579558 | HMC-5 | finishes aggregation , computation state: idle, communication state: reduce-scatter
20579558 | HMC-2 | clear pending aggregation for flow 10 from child HMC-3
20579558 | HMC-2 | finishes aggregation , computation state: idle, communication state: reduce-scatter
20579558 | HMC-3 | clear pending aggregation for flow 6 from child HMC-7
20579558 | HMC-3 | finishes aggregation , computation state: idle, communication state: reduce-scatter
20579558 | HMC-14 | clear pending aggregation for flow 12 from child HMC-10
20579558 | HMC-14 | finishes aggregation , computation state: idle, communication state: reduce-scatter
20579558 | HMC-9 | clear pending aggregation for flow 1 from child HMC-13
20579558 | HMC-9 | finishes aggregation , computation state: idle, communication state: reduce-scatter
20579558 | HMC-1 | clear pending aggregation for flow 14 from child HMC-2
20579558 | HMC-1 | finishes aggregation , computation state: idle, communication state: reduce-scatter
20579558 | HMC-0 | clear pending aggregation for flow 15 from child HMC-1
20579558 | HMC-0 | finishes aggregation , computation state: idle, communication state: reduce-scatter
20579558 | HMC-13 | clear pending aggregation for flow 2 from child HMC-12
20579558 | HMC-13 | finishes aggregation , computation state: idle, communication state: reduce-scatter
20579558 | HMC-8 | clear pending aggregation for flow 7 from child HMC-4
20579558 | HMC-8 | finishes aggregation , computation state: idle, communication state: reduce-scatter
20579558 | HMC-11 | clear pending aggregation for flow 9 from child HMC-15
20579558 | HMC-11 | finishes aggregation , computation state: idle, communication state: reduce-scatter
20579559 | HMC-15 | start reducing for flow 13 (from NI 0) to parent HMC-11 (to NI 0) at timestep 5
20579559 | HMC-12 | start reducing for flow 3 (from NI 0) to parent HMC-13 (to NI 0) at timestep 5
20579559 | HMC-7 | start reducing for flow 5 (from NI 0) to parent HMC-3 (to NI 0) at timestep 5
20579559 | HMC-10 | start reducing for flow 8 (from NI 0) to parent HMC-14 (to NI 0) at timestep 5
20579559 | HMC-6 | start reducing for flow 4 (from NI 0) to parent HMC-10 (to NI 0) at timestep 5
20579559 | HMC-4 | start reducing for flow 11 (from NI 0) to parent HMC-8 (to NI 0) at timestep 5
20579559 | HMC-5 | start reducing for flow 0 (from NI 0) to parent HMC-6 (to NI 0) at timestep 5
20579559 | HMC-2 | start reducing for flow 10 (from NI 0) to parent HMC-1 (to NI 0) at timestep 5
20579559 | HMC-3 | start reducing for flow 6 (from NI 0) to parent HMC-2 (to NI 0) at timestep 5
20579559 | HMC-14 | start reducing for flow 12 (from NI 0) to parent HMC-15 (to NI 0) at timestep 5
20579559 | HMC-9 | start reducing for flow 1 (from NI 0) to parent HMC-5 (to NI 0) at timestep 5
[...]
29972653 | HMC-13 | receives full gather for flow 1 from parent HMC-9
29972653 | HMC-1 | receives full gather for flow 15 from parent HMC-0
29972653 | HMC-0 | receives full gather for flow 11 from parent HMC-4
29972653 | HMC-8 | receives full gather for flow 3 from parent HMC-12
29972653 | HMC-11 | receives full gather for flow 5 from parent HMC-7
29972654 | HMC-15 | start gathering for flow 9 (from NI 0) to child HMC-14 (to NI 0) at timestep 27
29972654 | HMC-12 | start gathering for flow 2 (from NI 0) to child HMC-8 (to NI 0) at timestep 27
29972654 | HMC-7 | start gathering for flow 6 (from NI 0) to child HMC-11 (to NI 0) at timestep 27
29972654 | HMC-10 | start gathering for flow 12 (from NI 0) to child HMC-6 (to NI 0) at timestep 27
29972654 | HMC-6 | start gathering for flow 8 (from NI 0) to child HMC-5 (to NI 0) at timestep 27
29972654 | HMC-4 | start gathering for flow 7 (from NI 0) to child HMC-0 (to NI 0) at timestep 27
29972654 | HMC-5 | start gathering for flow 4 (from NI 0) to child HMC-9 (to NI 0) at timestep 27
29972654 | HMC-2 | start gathering for flow 14 (from NI 0) to child HMC-3 (to NI 0) at timestep 27
29972654 | HMC-3 | start gathering for flow 10 (from NI 0) to child HMC-7 (to NI 0) at timestep 27
29972654 | HMC-14 | start gathering for flow 13 (from NI 0) to child HMC-10 (to NI 0) at timestep 27
29972654 | HMC-9 | start gathering for flow 0 (from NI 0) to child HMC-13 (to NI 0) at timestep 27
29972654 | HMC-1 | start gathering for flow 15 (from NI 0) to child HMC-2 (to NI 0) at timestep 27
29972654 | HMC-0 | start gathering for flow 11 (from NI 0) to child HMC-1 (to NI 0) at timestep 27
29972654 | HMC-13 | start gathering for flow 1 (from NI 0) to child HMC-12 (to NI 0) at timestep 27
29972654 | HMC-8 | start gathering for flow 3 (from NI 0) to child HMC-4 (to NI 0) at timestep 27
29972654 | HMC-11 | start gathering for flow 5 (from NI 0) to child HMC-15 (to NI 0) at timestep 27
30395163 | HMC-8 | finishes gather for flow 3 (from NI 0) to child HMC-4 (to NI 0) at timestep 27
30395163 | HMC-11 | finishes gather for flow 5 (from NI 0) to child HMC-15 (to NI 0) at timestep 27
30395164 | HMC-15 | finishes gather for flow 9 (from NI 0) to child HMC-14 (to NI 0) at timestep 27
30395164 | HMC-12 | finishes gather for flow 2 (from NI 0) to child HMC-8 (to NI 0) at timestep 27
30395164 | HMC-7 | finishes gather for flow 6 (from NI 0) to child HMC-11 (to NI 0) at timestep 27
30395164 | HMC-6 | finishes gather for flow 8 (from NI 0) to child HMC-5 (to NI 0) at timestep 27
30395164 | HMC-10 | finishes gather for flow 12 (from NI 0) to child HMC-6 (to NI 0) at timestep 27
30395164 | HMC-4 | finishes gather for flow 7 (from NI 0) to child HMC-0 (to NI 0) at timestep 27
30395164 | HMC-5 | finishes gather for flow 4 (from NI 0) to child HMC-9 (to NI 0) at timestep 27
30395164 | HMC-2 | finishes gather for flow 14 (from NI 0) to child HMC-3 (to NI 0) at timestep 27
30395164 | HMC-3 | finishes gather for flow 10 (from NI 0) to child HMC-7 (to NI 0) at timestep 27
30395164 | HMC-14 | finishes gather for flow 13 (from NI 0) to child HMC-10 (to NI 0) at timestep 27
30395164 | HMC-9 | finishes gather for flow 0 (from NI 0) to child HMC-13 (to NI 0) at timestep 27
30395164 | HMC-1 | finishes gather for flow 15 (from NI 0) to child HMC-2 (to NI 0) at timestep 27
30395164 | HMC-0 | finishes gather for flow 11 (from NI 0) to child HMC-1 (to NI 0) at timestep 27
30395164 | HMC-13 | finishes gather for flow 1 (from NI 0) to child HMC-12 (to NI 0) at timestep 27
30396217 | HMC-15 | receives full gather for flow 5 from parent HMC-11
30396217 | HMC-12 | receives full gather for flow 1 from parent HMC-13
30396217 | HMC-7 | receives full gather for flow 10 from parent HMC-3
30396217 | HMC-6 | receives full gather for flow 12 from parent HMC-10
30396217 | HMC-10 | receives full gather for flow 13 from parent HMC-14
30396217 | HMC-4 | receives full gather for flow 3 from parent HMC-8
30396217 | HMC-5 | receives full gather for flow 8 from parent HMC-6
30396217 | HMC-2 | receives full gather for flow 15 from parent HMC-1
30396217 | HMC-3 | receives full gather for flow 14 from parent HMC-2
30396217 | HMC-14 | receives full gather for flow 9 from parent HMC-15
30396217 | HMC-9 | receives full gather for flow 4 from parent HMC-5
30396217 | HMC-13 | receives full gather for flow 0 from parent HMC-9
30396217 | HMC-1 | receives full gather for flow 11 from parent HMC-0
30396217 | HMC-0 | receives full gather for flow 7 from parent HMC-4
30396217 | HMC-8 | receives full gather for flow 2 from parent HMC-12
30396217 | HMC-11 | receives full gather for flow 6 from parent HMC-7
30396218 | HMC-15 | start gathering for flow 5 (from NI 0) to child HMC-14 (to NI 0) at timestep 28
30396218 | HMC-12 | start gathering for flow 1 (from NI 0) to child HMC-8 (to NI 0) at timestep 28
30396218 | HMC-7 | start gathering for flow 10 (from NI 0) to child HMC-11 (to NI 0) at timestep 28
30396218 | HMC-10 | start gathering for flow 13 (from NI 0) to child HMC-6 (to NI 0) at timestep 28
30396218 | HMC-6 | start gathering for flow 12 (from NI 0) to child HMC-5 (to NI 0) at timestep 28
30396218 | HMC-4 | start gathering for flow 3 (from NI 0) to child HMC-0 (to NI 0) at timestep 28
30396218 | HMC-5 | start gathering for flow 8 (from NI 0) to child HMC-9 (to NI 0) at timestep 28
30396218 | HMC-2 | start gathering for flow 15 (from NI 0) to child HMC-3 (to NI 0) at timestep 28
30396218 | HMC-3 | start gathering for flow 14 (from NI 0) to child HMC-7 (to NI 0) at timestep 28
30396218 | HMC-14 | start gathering for flow 9 (from NI 0) to child HMC-10 (to NI 0) at timestep 28
30396218 | HMC-9 | start gathering for flow 4 (from NI 0) to child HMC-13 (to NI 0) at timestep 28
30396218 | HMC-1 | start gathering for flow 11 (from NI 0) to child HMC-2 (to NI 0) at timestep 28
30396218 | HMC-0 | start gathering for flow 7 (from NI 0) to child HMC-1 (to NI 0) at timestep 28
30396218 | HMC-13 | start gathering for flow 0 (from NI 0) to child HMC-12 (to NI 0) at timestep 28
30396218 | HMC-8 | start gathering for flow 2 (from NI 0) to child HMC-4 (to NI 0) at timestep 28
30396218 | HMC-11 | start gathering for flow 6 (from NI 0) to child HMC-15 (to NI 0) at timestep 28
30818727 | HMC-8 | finishes gather for flow 2 (from NI 0) to child HMC-4 (to NI 0) at timestep 28
30818727 | HMC-11 | finishes gather for flow 6 (from NI 0) to child HMC-15 (to NI 0) at timestep 28
30818728 | HMC-15 | finishes gather for flow 5 (from NI 0) to child HMC-14 (to NI 0) at timestep 28
30818728 | HMC-12 | finishes gather for flow 1 (from NI 0) to child HMC-8 (to NI 0) at timestep 28
30818728 | HMC-7 | finishes gather for flow 10 (from NI 0) to child HMC-11 (to NI 0) at timestep 28
30818728 | HMC-6 | finishes gather for flow 12 (from NI 0) to child HMC-5 (to NI 0) at timestep 28
30818728 | HMC-10 | finishes gather for flow 13 (from NI 0) to child HMC-6 (to NI 0) at timestep 28
30818728 | HMC-4 | finishes gather for flow 3 (from NI 0) to child HMC-0 (to NI 0) at timestep 28
30818728 | HMC-5 | finishes gather for flow 8 (from NI 0) to child HMC-9 (to NI 0) at timestep 28
30818728 | HMC-2 | finishes gather for flow 15 (from NI 0) to child HMC-3 (to NI 0) at timestep 28
30818728 | HMC-3 | finishes gather for flow 14 (from NI 0) to child HMC-7 (to NI 0) at timestep 28
30818728 | HMC-14 | finishes gather for flow 9 (from NI 0) to child HMC-10 (to NI 0) at timestep 28
30818728 | HMC-9 | finishes gather for flow 4 (from NI 0) to child HMC-13 (to NI 0) at timestep 28
30818728 | HMC-1 | finishes gather for flow 11 (from NI 0) to child HMC-2 (to NI 0) at timestep 28
30818728 | HMC-0 | finishes gather for flow 7 (from NI 0) to child HMC-1 (to NI 0) at timestep 28
30818728 | HMC-13 | finishes gather for flow 0 (from NI 0) to child HMC-12 (to NI 0) at timestep 28
30819781 | HMC-15 | receives full gather for flow 6 from parent HMC-11
30819781 | HMC-12 | receives full gather for flow 0 from parent HMC-13
30819781 | HMC-7 | receives full gather for flow 14 from parent HMC-3
30819781 | HMC-6 | receives full gather for flow 13 from parent HMC-10
30819781 | HMC-10 | receives full gather for flow 9 from parent HMC-14
30819781 | HMC-4 | receives full gather for flow 2 from parent HMC-8
30819781 | HMC-5 | receives full gather for flow 12 from parent HMC-6
30819781 | HMC-2 | receives full gather for flow 11 from parent HMC-1
30819781 | HMC-3 | receives full gather for flow 15 from parent HMC-2
30819781 | HMC-14 | receives full gather for flow 5 from parent HMC-15
30819781 | HMC-9 | receives full gather for flow 8 from parent HMC-5
30819781 | HMC-13 | receives full gather for flow 4 from parent HMC-9
30819781 | HMC-1 | receives full gather for flow 7 from parent HMC-0
30819781 | HMC-0 | receives full gather for flow 3 from parent HMC-4
30819781 | HMC-8 | receives full gather for flow 1 from parent HMC-12
30819781 | HMC-11 | receives full gather for flow 10 from parent HMC-7
30819782 | HMC-15 | start gathering for flow 6 (from NI 0) to child HMC-14 (to NI 0) at timestep 29
30819782 | HMC-12 | start gathering for flow 0 (from NI 0) to child HMC-8 (to NI 0) at timestep 29
30819782 | HMC-7 | start gathering for flow 14 (from NI 0) to child HMC-11 (to NI 0) at timestep 29
30819782 | HMC-10 | start gathering for flow 9 (from NI 0) to child HMC-6 (to NI 0) at timestep 29
30819782 | HMC-6 | start gathering for flow 13 (from NI 0) to child HMC-5 (to NI 0) at timestep 29
30819782 | HMC-4 | start gathering for flow 2 (from NI 0) to child HMC-0 (to NI 0) at timestep 29
30819782 | HMC-5 | start gathering for flow 12 (from NI 0) to child HMC-9 (to NI 0) at timestep 29
30819782 | HMC-2 | start gathering for flow 11 (from NI 0) to child HMC-3 (to NI 0) at timestep 29
30819782 | HMC-3 | start gathering for flow 15 (from NI 0) to child HMC-7 (to NI 0) at timestep 29
30819782 | HMC-14 | start gathering for flow 5 (from NI 0) to child HMC-10 (to NI 0) at timestep 29
30819782 | HMC-9 | start gathering for flow 8 (from NI 0) to child HMC-13 (to NI 0) at timestep 29
30819782 | HMC-1 | start gathering for flow 7 (from NI 0) to child HMC-2 (to NI 0) at timestep 29
30819782 | HMC-0 | start gathering for flow 3 (from NI 0) to child HMC-1 (to NI 0) at timestep 29
30819782 | HMC-13 | start gathering for flow 4 (from NI 0) to child HMC-12 (to NI 0) at timestep 29
30819782 | HMC-8 | start gathering for flow 1 (from NI 0) to child HMC-4 (to NI 0) at timestep 29
30819782 | HMC-11 | start gathering for flow 10 (from NI 0) to child HMC-15 (to NI 0) at timestep 29
31242291 | HMC-8 | finishes gather for flow 1 (from NI 0) to child HMC-4 (to NI 0) at timestep 29
31242291 | HMC-11 | finishes gather for flow 10 (from NI 0) to child HMC-15 (to NI 0) at timestep 29
31242292 | HMC-15 | finishes gather for flow 6 (from NI 0) to child HMC-14 (to NI 0) at timestep 29
31242292 | HMC-12 | finishes gather for flow 0 (from NI 0) to child HMC-8 (to NI 0) at timestep 29
31242292 | HMC-7 | finishes gather for flow 14 (from NI 0) to child HMC-11 (to NI 0) at timestep 29
31242292 | HMC-6 | finishes gather for flow 13 (from NI 0) to child HMC-5 (to NI 0) at timestep 29
31242292 | HMC-10 | finishes gather for flow 9 (from NI 0) to child HMC-6 (to NI 0) at timestep 29
31242292 | HMC-4 | finishes gather for flow 2 (from NI 0) to child HMC-0 (to NI 0) at timestep 29
31242292 | HMC-5 | finishes gather for flow 12 (from NI 0) to child HMC-9 (to NI 0) at timestep 29
31242292 | HMC-2 | finishes gather for flow 11 (from NI 0) to child HMC-3 (to NI 0) at timestep 29
31242292 | HMC-3 | finishes gather for flow 15 (from NI 0) to child HMC-7 (to NI 0) at timestep 29
31242292 | HMC-14 | finishes gather for flow 5 (from NI 0) to child HMC-10 (to NI 0) at timestep 29
31242292 | HMC-9 | finishes gather for flow 8 (from NI 0) to child HMC-13 (to NI 0) at timestep 29
31242292 | HMC-1 | finishes gather for flow 7 (from NI 0) to child HMC-2 (to NI 0) at timestep 29
31242292 | HMC-0 | finishes gather for flow 3 (from NI 0) to child HMC-1 (to NI 0) at timestep 29
31242292 | HMC-13 | finishes gather for flow 4 (from NI 0) to child HMC-12 (to NI 0) at timestep 29
31243345 | HMC-15 | receives full gather for flow 10 from parent HMC-11
31243345 | HMC-12 | receives full gather for flow 4 from parent HMC-13
31243345 | HMC-7 | receives full gather for flow 15 from parent HMC-3
31243345 | HMC-6 | receives full gather for flow 9 from parent HMC-10
31243345 | HMC-10 | receives full gather for flow 5 from parent HMC-14
31243345 | HMC-4 | receives full gather for flow 1 from parent HMC-8
31243345 | HMC-5 | receives full gather for flow 13 from parent HMC-6
31243345 | HMC-2 | receives full gather for flow 7 from parent HMC-1
31243345 | HMC-3 | receives full gather for flow 11 from parent HMC-2
31243345 | HMC-14 | receives full gather for flow 6 from parent HMC-15
31243345 | HMC-9 | receives full gather for flow 12 from parent HMC-5
31243345 | HMC-13 | receives full gather for flow 8 from parent HMC-9
31243345 | HMC-1 | receives full gather for flow 3 from parent HMC-0
31243345 | HMC-0 | receives full gather for flow 2 from parent HMC-4
31243345 | HMC-8 | receives full gather for flow 0 from parent HMC-12
31243345 | HMC-11 | receives full gather for flow 14 from parent HMC-7
31243346 | HMC-15 | start gathering for flow 10 (from NI 0) to child HMC-14 (to NI 0) at timestep 30
31243346 | HMC-12 | start gathering for flow 4 (from NI 0) to child HMC-8 (to NI 0) at timestep 30
31243346 | HMC-7 | start gathering for flow 15 (from NI 0) to child HMC-11 (to NI 0) at timestep 30
31243346 | HMC-10 | start gathering for flow 5 (from NI 0) to child HMC-6 (to NI 0) at timestep 30
31243346 | HMC-6 | start gathering for flow 9 (from NI 0) to child HMC-5 (to NI 0) at timestep 30
31243346 | HMC-4 | start gathering for flow 1 (from NI 0) to child HMC-0 (to NI 0) at timestep 30
31243346 | HMC-5 | start gathering for flow 13 (from NI 0) to child HMC-9 (to NI 0) at timestep 30
31243346 | HMC-2 | start gathering for flow 7 (from NI 0) to child HMC-3 (to NI 0) at timestep 30
31243346 | HMC-3 | start gathering for flow 11 (from NI 0) to child HMC-7 (to NI 0) at timestep 30
31243346 | HMC-14 | start gathering for flow 6 (from NI 0) to child HMC-10 (to NI 0) at timestep 30
31243346 | HMC-9 | start gathering for flow 12 (from NI 0) to child HMC-13 (to NI 0) at timestep 30
31243346 | HMC-1 | start gathering for flow 3 (from NI 0) to child HMC-2 (to NI 0) at timestep 30
31243346 | HMC-0 | start gathering for flow 2 (from NI 0) to child HMC-1 (to NI 0) at timestep 30
31243346 | HMC-13 | start gathering for flow 8 (from NI 0) to child HMC-12 (to NI 0) at timestep 30
31243346 | HMC-8 | start gathering for flow 0 (from NI 0) to child HMC-4 (to NI 0) at timestep 30
31243346 | HMC-11 | start gathering for flow 14 (from NI 0) to child HMC-15 (to NI 0) at timestep 30
31665855 | HMC-8 | finishes gather for flow 0 (from NI 0) to child HMC-4 (to NI 0) at timestep 30
31665855 | HMC-8 | finishes all-gather (after send-gather-message)
31665855 | HMC-11 | finishes gather for flow 14 (from NI 0) to child HMC-15 (to NI 0) at timestep 30
31665855 | HMC-11 | finishes all-gather (after send-gather-message)
31665856 | HMC-15 | finishes gather for flow 10 (from NI 0) to child HMC-14 (to NI 0) at timestep 30
31665856 | HMC-15 | finishes all-gather (after send-gather-message)
31665856 | HMC-12 | finishes gather for flow 4 (from NI 0) to child HMC-8 (to NI 0) at timestep 30
31665856 | HMC-12 | finishes all-gather (after send-gather-message)
31665856 | HMC-7 | finishes gather for flow 15 (from NI 0) to child HMC-11 (to NI 0) at timestep 30
31665856 | HMC-7 | finishes all-gather (after send-gather-message)
31665856 | HMC-6 | finishes gather for flow 9 (from NI 0) to child HMC-5 (to NI 0) at timestep 30
31665856 | HMC-6 | finishes all-gather (after send-gather-message)
31665856 | HMC-10 | finishes gather for flow 5 (from NI 0) to child HMC-6 (to NI 0) at timestep 30
31665856 | HMC-10 | finishes all-gather (after send-gather-message)
31665856 | HMC-4 | finishes gather for flow 1 (from NI 0) to child HMC-0 (to NI 0) at timestep 30
31665856 | HMC-4 | finishes all-gather (after send-gather-message)
31665856 | HMC-5 | finishes gather for flow 13 (from NI 0) to child HMC-9 (to NI 0) at timestep 30
31665856 | HMC-5 | finishes all-gather (after send-gather-message)
31665856 | HMC-2 | finishes gather for flow 7 (from NI 0) to child HMC-3 (to NI 0) at timestep 30
31665856 | HMC-2 | finishes all-gather (after send-gather-message)
31665856 | HMC-3 | finishes gather for flow 11 (from NI 0) to child HMC-7 (to NI 0) at timestep 30
31665856 | HMC-3 | finishes all-gather (after send-gather-message)
31665856 | HMC-14 | finishes gather for flow 6 (from NI 0) to child HMC-10 (to NI 0) at timestep 30
31665856 | HMC-14 | finishes all-gather (after send-gather-message)
31665856 | HMC-9 | finishes gather for flow 12 (from NI 0) to child HMC-13 (to NI 0) at timestep 30
31665856 | HMC-9 | finishes all-gather (after send-gather-message)
31665856 | HMC-1 | finishes gather for flow 3 (from NI 0) to child HMC-2 (to NI 0) at timestep 30
31665856 | HMC-1 | finishes all-gather (after send-gather-message)
31665856 | HMC-0 | finishes gather for flow 2 (from NI 0) to child HMC-1 (to NI 0) at timestep 30
31665856 | HMC-0 | finishes all-gather (after send-gather-message)
31665856 | HMC-13 | finishes gather for flow 8 (from NI 0) to child HMC-12 (to NI 0) at timestep 30
31665856 | HMC-13 | finishes all-gather (after send-gather-message)
31666909 | HMC-15 | receives full gather for flow 14 from parent HMC-11
31666909 | HMC-15 | finishes all-gather (after recieving all-gather)
31666909 | HMC-12 | receives full gather for flow 8 from parent HMC-13
31666909 | HMC-12 | finishes all-gather (after recieving all-gather)
31666909 | HMC-7 | receives full gather for flow 11 from parent HMC-3
31666909 | HMC-7 | finishes all-gather (after recieving all-gather)
31666909 | HMC-6 | receives full gather for flow 5 from parent HMC-10
31666909 | HMC-6 | finishes all-gather (after recieving all-gather)
31666909 | HMC-10 | receives full gather for flow 6 from parent HMC-14
31666909 | HMC-10 | finishes all-gather (after recieving all-gather)
31666909 | HMC-4 | receives full gather for flow 0 from parent HMC-8
31666909 | HMC-4 | finishes all-gather (after recieving all-gather)
31666909 | HMC-5 | receives full gather for flow 9 from parent HMC-6
31666909 | HMC-5 | finishes all-gather (after recieving all-gather)
31666909 | HMC-2 | receives full gather for flow 3 from parent HMC-1
31666909 | HMC-2 | finishes all-gather (after recieving all-gather)
31666909 | HMC-3 | receives full gather for flow 7 from parent HMC-2
31666909 | HMC-3 | finishes all-gather (after recieving all-gather)
31666909 | HMC-14 | receives full gather for flow 10 from parent HMC-15
31666909 | HMC-14 | finishes all-gather (after recieving all-gather)
31666909 | HMC-9 | receives full gather for flow 13 from parent HMC-5
31666909 | HMC-9 | finishes all-gather (after recieving all-gather)
31666909 | HMC-13 | receives full gather for flow 12 from parent HMC-9
31666909 | HMC-13 | finishes all-gather (after recieving all-gather)
31666909 | HMC-1 | receives full gather for flow 2 from parent HMC-0
31666909 | HMC-1 | finishes all-gather (after recieving all-gather)
31666909 | HMC-0 | receives full gather for flow 1 from parent HMC-4
31666909 | HMC-0 | finishes all-gather (after recieving all-gather)
31666909 | HMC-8 | receives full gather for flow 4 from parent HMC-12
31666909 | HMC-8 | finishes all-gather (after recieving all-gather)
31666909 | HMC-11 | receives full gather for flow 15 from parent HMC-7
31666909 | HMC-11 | finishes all-gather (after recieving all-gather)

======== Simulation Summary ========
Training epoch runtime: 31667058 cycles
 - computation: 18212612 cycles (57.51%)
 - allreduce: 13454446 cycles (42.49%)
     - overlapped computation: 747360 cycles (2.36%)
     - pure communication: 12707086 cycles (40.13%)
Total number of messages: 11954880

