====================================================
******************* SCALE SIM **********************
====================================================
Array Size:    32 x 32
SRAM IFMAP:    524288
SRAM Filter:   524288
SRAM OFMAP:    262144
CSV file path: /home/farabi/study/research/multitree-sim/src/SCALE-Sim/topologies/mlperf/Transformer_short.csv
Dataflow:      os
====================================================


Model loading ...
Model loading finished

NN model size: 2491436 parameters

Start a training epoch ...

Feed-Forward ...

Commencing run for Embedding
Average utilization : 99.81473141551632 %
Cycles for compute  : 539680 cycles

Commencing run for Attn_Xmap
Average utilization : 2.987263033175356 %
Cycles for compute  : 1056 cycles

Commencing run for Attn_Kmap
Average utilization : 2.987263033175356 %
Cycles for compute  : 1056 cycles

Commencing run for Attn_Qmap
Average utilization : 2.987263033175356 %
Cycles for compute  : 1056 cycles

Commencing run for Attn_QxK'
Average utilization : 1.3727678571428572 %
Cycles for compute  : 160 cycles

Commencing run for Attn_SFMXxV
Average utilization : 2.2110849056603774 %
Cycles for compute  : 160 cycles

Commencing run for Attn_Concat_map
Average utilization : 3.1073285297336737 %
Cycles for compute  : 8224 cycles

Commencing run for FFN1
Average utilization : 3.120569605780664 %
Cycles for compute  : 32800 cycles

Commencing run for FFN2
Average utilization : 3.120569605780664 %
Cycles for compute  : 32800 cycles

Backward Propagation ...

Commencing back-propagation run for FFN2
 - compute input-gradient:
 -- input-gradient: read cycles: 32799, write cycles: 65
 - compute filter-gradient:
 -- filter-gradient: read cycles: 1055, write cycles: 32800
 - input-gradient-cycles: 32799, uitl: 3.120569605780664 %
 - filter-gradent-cycles: 32800, uitl: 96.05154028436019 %
Average utilization : 6.016598850948189 %
Cycles for compute  : 65599 cycles


Commencing back-propagation run for FFN1
 - compute input-gradient:
 -- input-gradient: read cycles: 32799, write cycles: 17
 - compute filter-gradient:
 -- filter-gradient: read cycles: 1055, write cycles: 32800
 - input-gradient-cycles: 32799, uitl: 3.120569605780664 %
 - filter-gradent-cycles: 32800, uitl: 96.05154028436019 %
Average utilization : 6.016598850948189 %
Cycles for compute  : 65599 cycles


Commencing back-propagation run for Attn_Concat_map
 - compute input-gradient:
 -- input-gradient: read cycles: 8223, write cycles: 17
 - compute filter-gradient:
 -- filter-gradient: read cycles: 287, write cycles: 8224
 - input-gradient-cycles: 8223, uitl: 3.1073285297336737 %
 - filter-gradent-cycles: 8224, uitl: 85.48562717770035 %
Average utilization : 5.885539071680376 %
Cycles for compute  : 16447 cycles


Commencing back-propagation run for Attn_SFMXxV
 - compute input-gradient:
 -- input-gradient: read cycles: 35, write cycles: 160
 - compute filter-gradient:
 -- filter-gradient: read cycles: 159, write cycles: 191
 - input-gradient-cycles: 35, uitl: 1.3727678571428572 %
 - filter-gradent-cycles: 191, uitl: 2.2110849056603774 %
Average utilization : 2.0598421391752577 %
Cycles for compute  : 351 cycles


Commencing back-propagation run for Attn_QxK'
 - compute input-gradient:
 -- input-gradient: read cycles: 159, write cycles: 96
 - compute filter-gradient:
 -- filter-gradient: read cycles: 128, write cycles: 98
 - input-gradient-cycles: 159, uitl: 2.2110849056603774 %
 - filter-gradent-cycles: 128, uitl: 2.74658203125 %
Average utilization : 2.4499128919860627 %
Cycles for compute  : 287 cycles


Commencing back-propagation run for Attn_Qmap
 - compute input-gradient:
 -- input-gradient: read cycles: 1055, write cycles: 17
 - compute filter-gradient:
 -- filter-gradient: read cycles: 63, write cycles: 1056
 - input-gradient-cycles: 1055, uitl: 2.987263033175356 %
 - filter-gradent-cycles: 1056, uitl: 33.87896825396825 %
Average utilization : 4.728029964221824 %
Cycles for compute  : 2111 cycles


Commencing back-propagation run for Attn_Kmap
 - compute input-gradient:
 -- input-gradient: read cycles: 1055, write cycles: 17
 - compute filter-gradient:
 -- filter-gradient: read cycles: 63, write cycles: 1056
 - input-gradient-cycles: 1055, uitl: 2.987263033175356 %
 - filter-gradent-cycles: 1056, uitl: 33.87896825396825 %
Average utilization : 4.728029964221824 %
Cycles for compute  : 2111 cycles


Commencing back-propagation run for Attn_Xmap
 - compute input-gradient:
 -- input-gradient: read cycles: 1055, write cycles: 17
 - compute filter-gradient:
 -- filter-gradient: read cycles: 63, write cycles: 1056
 - input-gradient-cycles: 1055, uitl: 2.987263033175356 %
 - filter-gradent-cycles: 1056, uitl: 33.87896825396825 %
Average utilization : 4.728029964221824 %
Cycles for compute  : 2111 cycles


Commencing back-propagation run for Embedding
 - compute input-gradient:
 -- input-gradient: read cycles: 539359, write cycles: 544
 - compute filter-gradient:
 -- filter-gradient: read cycles: 539648, write cycles: 507006
 - input-gradient-cycles: 539359, uitl: 3.1247305829697845 %
 - filter-gradent-cycles: 539648, uitl: 3.1231349966783903 %
Average utilization : 3.1239325761440844 %
Cycles for compute  : 1079007 cycles

0 | HMC-7 | starts training, computation state: training, communication state: idle
0 | HMC-6 | starts training, computation state: training, communication state: idle
0 | HMC-15 | starts training, computation state: training, communication state: idle
0 | HMC-12 | starts training, computation state: training, communication state: idle
0 | HMC-4 | starts training, computation state: training, communication state: idle
0 | HMC-5 | starts training, computation state: training, communication state: idle
0 | HMC-2 | starts training, computation state: training, communication state: idle
0 | HMC-3 | starts training, computation state: training, communication state: idle
0 | HMC-9 | starts training, computation state: training, communication state: idle
0 | HMC-10 | starts training, computation state: training, communication state: idle
0 | HMC-11 | starts training, computation state: training, communication state: idle
0 | HMC-1 | starts training, computation state: training, communication state: idle
0 | HMC-0 | starts training, computation state: training, communication state: idle
0 | HMC-8 | starts training, computation state: training, communication state: idle
0 | HMC-14 | starts training, computation state: training, communication state: idle
0 | HMC-13 | starts training, computation state: training, communication state: idle
1850615 | HMC-7 finishes training, computation sate: idle, communication state: idle
1850615 | HMC-6 finishes training, computation sate: idle, communication state: idle
1850615 | HMC-15 finishes training, computation sate: idle, communication state: idle
1850615 | HMC-12 finishes training, computation sate: idle, communication state: idle
1850615 | HMC-4 finishes training, computation sate: idle, communication state: idle
1850615 | HMC-5 finishes training, computation sate: idle, communication state: idle
1850615 | HMC-2 finishes training, computation sate: idle, communication state: idle
1850615 | HMC-3 finishes training, computation sate: idle, communication state: idle
1850615 | HMC-9 finishes training, computation sate: idle, communication state: idle
1850615 | HMC-11 finishes training, computation sate: idle, communication state: idle
1850615 | HMC-14 finishes training, computation sate: idle, communication state: idle
1850615 | HMC-1 finishes training, computation sate: idle, communication state: idle
1850615 | HMC-0 finishes training, computation sate: idle, communication state: idle
1850615 | HMC-10 finishes training, computation sate: idle, communication state: idle
1850615 | HMC-8 finishes training, computation sate: idle, communication state: idle
1850615 | HMC-13 finishes training, computation sate: idle, communication state: idle
1850616 | HMC-7 | starts aggregation, computation state: aggregating, communication state: idle
1850616 | HMC-6 | starts aggregation, computation state: aggregating, communication state: idle
1850616 | HMC-15 | starts aggregation, computation state: aggregating, communication state: idle
1850616 | HMC-12 | starts aggregation, computation state: aggregating, communication state: idle
1850616 | HMC-4 | starts aggregation, computation state: aggregating, communication state: idle
1850616 | HMC-5 | starts aggregation, computation state: aggregating, communication state: idle
1850616 | HMC-2 | starts aggregation, computation state: aggregating, communication state: idle
1850616 | HMC-3 | starts aggregation, computation state: aggregating, communication state: idle
1850616 | HMC-9 | starts aggregation, computation state: aggregating, communication state: idle
1850616 | HMC-11 | starts aggregation, computation state: aggregating, communication state: idle
1850616 | HMC-14 | starts aggregation, computation state: aggregating, communication state: idle
1850616 | HMC-1 | starts aggregation, computation state: aggregating, communication state: idle
1850616 | HMC-0 | starts aggregation, computation state: aggregating, communication state: idle
1850616 | HMC-10 | starts aggregation, computation state: aggregating, communication state: idle
1850616 | HMC-8 | starts aggregation, computation state: aggregating, communication state: idle
1850616 | HMC-13 | starts aggregation, computation state: aggregating, communication state: idle
1928488 | HMC-7 | finishes aggregation , computation state: idle, communication state: reduce-scatter
1928488 | HMC-6 | finishes aggregation , computation state: idle, communication state: reduce-scatter
1928488 | HMC-15 | finishes aggregation , computation state: idle, communication state: reduce-scatter
1928488 | HMC-12 | finishes aggregation , computation state: idle, communication state: reduce-scatter
1928488 | HMC-4 | finishes aggregation , computation state: idle, communication state: reduce-scatter
1928488 | HMC-5 | finishes aggregation , computation state: idle, communication state: reduce-scatter
1928488 | HMC-2 | finishes aggregation , computation state: idle, communication state: reduce-scatter
1928488 | HMC-3 | finishes aggregation , computation state: idle, communication state: reduce-scatter
1928488 | HMC-9 | finishes aggregation , computation state: idle, communication state: reduce-scatter
1928488 | HMC-11 | finishes aggregation , computation state: idle, communication state: reduce-scatter
1928488 | HMC-14 | finishes aggregation , computation state: idle, communication state: reduce-scatter
1928488 | HMC-1 | finishes aggregation , computation state: idle, communication state: reduce-scatter
1928488 | HMC-0 | finishes aggregation , computation state: idle, communication state: reduce-scatter
1928488 | HMC-10 | finishes aggregation , computation state: idle, communication state: reduce-scatter
1928488 | HMC-8 | finishes aggregation , computation state: idle, communication state: reduce-scatter
1928488 | HMC-13 | finishes aggregation , computation state: idle, communication state: reduce-scatter
1928489 | HMC-7 | start reducing for flow 11 (from NI 0) to parent HMC-3 (to NI 0) at timestep 0
1928489 | HMC-6 | start reducing for flow 5 (from NI 0) to parent HMC-10 (to NI 0) at timestep 0
1928489 | HMC-15 | start reducing for flow 14 (from NI 0) to parent HMC-11 (to NI 0) at timestep 0
1928489 | HMC-12 | start reducing for flow 8 (from NI 0) to parent HMC-13 (to NI 0) at timestep 0
1928489 | HMC-4 | start reducing for flow 0 (from NI 0) to parent HMC-8 (to NI 0) at timestep 0
1928489 | HMC-5 | start reducing for flow 9 (from NI 0) to parent HMC-6 (to NI 0) at timestep 0
1928489 | HMC-2 | start reducing for flow 3 (from NI 0) to parent HMC-1 (to NI 0) at timestep 0
1928489 | HMC-3 | start reducing for flow 7 (from NI 0) to parent HMC-2 (to NI 0) at timestep 0
1928489 | HMC-9 | start reducing for flow 13 (from NI 0) to parent HMC-5 (to NI 0) at timestep 0
1928489 | HMC-11 | start reducing for flow 15 (from NI 0) to parent HMC-7 (to NI 0) at timestep 0
1928489 | HMC-14 | start reducing for flow 10 (from NI 0) to parent HMC-15 (to NI 0) at timestep 0
1928489 | HMC-1 | start reducing for flow 2 (from NI 0) to parent HMC-0 (to NI 0) at timestep 0
1928489 | HMC-0 | start reducing for flow 1 (from NI 0) to parent HMC-4 (to NI 0) at timestep 0
1928489 | HMC-10 | start reducing for flow 6 (from NI 0) to parent HMC-14 (to NI 0) at timestep 0
1928489 | HMC-8 | start reducing for flow 4 (from NI 0) to parent HMC-12 (to NI 0) at timestep 0
1928489 | HMC-13 | start reducing for flow 12 (from NI 0) to parent HMC-9 (to NI 0) at timestep 0
1968974 | HMC-9 | finishes reducing for flow 13 (from NI 0) to parent HMC-5 (to NI 0) at timestep 0
1968974 | HMC-10 | finishes reducing for flow 6 (from NI 0) to parent HMC-14 (to NI 0) at timestep 0
1968974 | HMC-11 | finishes reducing for flow 15 (from NI 0) to parent HMC-7 (to NI 0) at timestep 0
1968974 | HMC-0 | finishes reducing for flow 1 (from NI 0) to parent HMC-4 (to NI 0) at timestep 0
1968974 | HMC-1 | finishes reducing for flow 2 (from NI 0) to parent HMC-0 (to NI 0) at timestep 0
1968974 | HMC-8 | finishes reducing for flow 4 (from NI 0) to parent HMC-12 (to NI 0) at timestep 0
1968974 | HMC-14 | finishes reducing for flow 10 (from NI 0) to parent HMC-15 (to NI 0) at timestep 0
1968974 | HMC-13 | finishes reducing for flow 12 (from NI 0) to parent HMC-9 (to NI 0) at timestep 0
1968975 | HMC-7 | finishes reducing for flow 11 (from NI 0) to parent HMC-3 (to NI 0) at timestep 0
1968975 | HMC-6 | finishes reducing for flow 5 (from NI 0) to parent HMC-10 (to NI 0) at timestep 0
1968975 | HMC-15 | finishes reducing for flow 14 (from NI 0) to parent HMC-11 (to NI 0) at timestep 0
1968975 | HMC-12 | finishes reducing for flow 8 (from NI 0) to parent HMC-13 (to NI 0) at timestep 0
1968975 | HMC-4 | finishes reducing for flow 0 (from NI 0) to parent HMC-8 (to NI 0) at timestep 0
1968975 | HMC-5 | finishes reducing for flow 9 (from NI 0) to parent HMC-6 (to NI 0) at timestep 0
1968975 | HMC-2 | finishes reducing for flow 3 (from NI 0) to parent HMC-1 (to NI 0) at timestep 0
1968975 | HMC-3 | finishes reducing for flow 7 (from NI 0) to parent HMC-2 (to NI 0) at timestep 0
1970028 | HMC-7 | receives full reduce for flow 15 from child HMC-11
1970028 | HMC-6 | receives full reduce for flow 9 from child HMC-5
1970028 | HMC-15 | receives full reduce for flow 10 from child HMC-14
1970028 | HMC-12 | receives full reduce for flow 4 from child HMC-8
1970028 | HMC-4 | receives full reduce for flow 1 from child HMC-0
1970028 | HMC-5 | receives full reduce for flow 13 from child HMC-9
1970028 | HMC-2 | receives full reduce for flow 7 from child HMC-3
1970028 | HMC-3 | receives full reduce for flow 11 from child HMC-7
1970028 | HMC-9 | receives full reduce for flow 12 from child HMC-13
1970028 | HMC-10 | receives full reduce for flow 5 from child HMC-6
1970028 | HMC-11 | receives full reduce for flow 14 from child HMC-15
1970028 | HMC-1 | receives full reduce for flow 3 from child HMC-2
1970028 | HMC-0 | receives full reduce for flow 2 from child HMC-1
1970028 | HMC-8 | receives full reduce for flow 0 from child HMC-4
1970028 | HMC-14 | receives full reduce for flow 6 from child HMC-10
1970028 | HMC-13 | receives full reduce for flow 8 from child HMC-12
1970029 | HMC-7 | starts aggregation, computation state: aggregating, communication state: reduce-scatter
1970029 | HMC-6 | starts aggregation, computation state: aggregating, communication state: reduce-scatter
1970029 | HMC-15 | starts aggregation, computation state: aggregating, communication state: reduce-scatter
1970029 | HMC-12 | starts aggregation, computation state: aggregating, communication state: reduce-scatter
1970029 | HMC-4 | starts aggregation, computation state: aggregating, communication state: reduce-scatter
1970029 | HMC-5 | starts aggregation, computation state: aggregating, communication state: reduce-scatter
1970029 | HMC-2 | starts aggregation, computation state: aggregating, communication state: reduce-scatter
1970029 | HMC-3 | starts aggregation, computation state: aggregating, communication state: reduce-scatter
1970029 | HMC-9 | starts aggregation, computation state: aggregating, communication state: reduce-scatter
1970029 | HMC-11 | starts aggregation, computation state: aggregating, communication state: reduce-scatter
1970029 | HMC-14 | starts aggregation, computation state: aggregating, communication state: reduce-scatter
1970029 | HMC-1 | starts aggregation, computation state: aggregating, communication state: reduce-scatter
1970029 | HMC-0 | starts aggregation, computation state: aggregating, communication state: reduce-scatter
1970029 | HMC-10 | starts aggregation, computation state: aggregating, communication state: reduce-scatter
1970029 | HMC-8 | starts aggregation, computation state: aggregating, communication state: reduce-scatter
1970029 | HMC-13 | starts aggregation, computation state: aggregating, communication state: reduce-scatter
1974909 | HMC-7 | clear pending aggregation for flow 15 from child HMC-11
1974909 | HMC-7 | finishes aggregation , computation state: idle, communication state: reduce-scatter
1974909 | HMC-6 | clear pending aggregation for flow 9 from child HMC-5
1974909 | HMC-6 | finishes aggregation , computation state: idle, communication state: reduce-scatter
1974909 | HMC-15 | clear pending aggregation for flow 10 from child HMC-14
1974909 | HMC-15 | finishes aggregation , computation state: idle, communication state: reduce-scatter
1974909 | HMC-12 | clear pending aggregation for flow 4 from child HMC-8
1974909 | HMC-12 | finishes aggregation , computation state: idle, communication state: reduce-scatter
1974909 | HMC-4 | clear pending aggregation for flow 1 from child HMC-0
1974909 | HMC-4 | finishes aggregation , computation state: idle, communication state: reduce-scatter
1974909 | HMC-5 | clear pending aggregation for flow 13 from child HMC-9
1974909 | HMC-5 | finishes aggregation , computation state: idle, communication state: reduce-scatter
1974909 | HMC-2 | clear pending aggregation for flow 7 from child HMC-3
1974909 | HMC-2 | finishes aggregation , computation state: idle, communication state: reduce-scatter
1974909 | HMC-3 | clear pending aggregation for flow 11 from child HMC-7
1974909 | HMC-3 | finishes aggregation , computation state: idle, communication state: reduce-scatter
1974909 | HMC-9 | clear pending aggregation for flow 12 from child HMC-13
1974909 | HMC-9 | finishes aggregation , computation state: idle, communication state: reduce-scatter
1974909 | HMC-11 | clear pending aggregation for flow 14 from child HMC-15
1974909 | HMC-11 | finishes aggregation , computation state: idle, communication state: reduce-scatter
1974909 | HMC-14 | clear pending aggregation for flow 6 from child HMC-10
1974909 | HMC-14 | finishes aggregation , computation state: idle, communication state: reduce-scatter
1974909 | HMC-1 | clear pending aggregation for flow 3 from child HMC-2
1974909 | HMC-1 | finishes aggregation , computation state: idle, communication state: reduce-scatter
1974909 | HMC-0 | clear pending aggregation for flow 2 from child HMC-1
1974909 | HMC-0 | finishes aggregation , computation state: idle, communication state: reduce-scatter
1974909 | HMC-10 | clear pending aggregation for flow 5 from child HMC-6
1974909 | HMC-10 | finishes aggregation , computation state: idle, communication state: reduce-scatter
1974909 | HMC-8 | clear pending aggregation for flow 0 from child HMC-4
1974909 | HMC-8 | finishes aggregation , computation state: idle, communication state: reduce-scatter
1974909 | HMC-13 | clear pending aggregation for flow 8 from child HMC-12
1974909 | HMC-13 | finishes aggregation , computation state: idle, communication state: reduce-scatter
1974910 | HMC-7 | start reducing for flow 15 (from NI 0) to parent HMC-3 (to NI 0) at timestep 1
1974910 | HMC-6 | start reducing for flow 9 (from NI 0) to parent HMC-10 (to NI 0) at timestep 1
1974910 | HMC-15 | start reducing for flow 10 (from NI 0) to parent HMC-11 (to NI 0) at timestep 1
1974910 | HMC-12 | start reducing for flow 4 (from NI 0) to parent HMC-13 (to NI 0) at timestep 1
1974910 | HMC-4 | start reducing for flow 1 (from NI 0) to parent HMC-8 (to NI 0) at timestep 1
1974910 | HMC-5 | start reducing for flow 13 (from NI 0) to parent HMC-6 (to NI 0) at timestep 1
1974910 | HMC-2 | start reducing for flow 7 (from NI 0) to parent HMC-1 (to NI 0) at timestep 1
1974910 | HMC-3 | start reducing for flow 11 (from NI 0) to parent HMC-2 (to NI 0) at timestep 1
1974910 | HMC-9 | start reducing for flow 12 (from NI 0) to parent HMC-5 (to NI 0) at timestep 1
1974910 | HMC-11 | start reducing for flow 14 (from NI 0) to parent HMC-7 (to NI 0) at timestep 1
1974910 | HMC-14 | start reducing for flow 6 (from NI 0) to parent HMC-15 (to NI 0) at timestep 1
1974910 | HMC-1 | start reducing for flow 3 (from NI 0) to parent HMC-0 (to NI 0) at timestep 1
1974910 | HMC-0 | start reducing for flow 2 (from NI 0) to parent HMC-4 (to NI 0) at timestep 1
1974910 | HMC-10 | start reducing for flow 5 (from NI 0) to parent HMC-14 (to NI 0) at timestep 1
1974910 | HMC-8 | start reducing for flow 0 (from NI 0) to parent HMC-12 (to NI 0) at timestep 1
1974910 | HMC-13 | start reducing for flow 8 (from NI 0) to parent HMC-9 (to NI 0) at timestep 1
2015395 | HMC-9 | finishes reducing for flow 12 (from NI 0) to parent HMC-5 (to NI 0) at timestep 1
2015395 | HMC-10 | finishes reducing for flow 5 (from NI 0) to parent HMC-14 (to NI 0) at timestep 1
2015395 | HMC-11 | finishes reducing for flow 14 (from NI 0) to parent HMC-7 (to NI 0) at timestep 1
2015395 | HMC-0 | finishes reducing for flow 2 (from NI 0) to parent HMC-4 (to NI 0) at timestep 1
2015395 | HMC-1 | finishes reducing for flow 3 (from NI 0) to parent HMC-0 (to NI 0) at timestep 1
2015395 | HMC-8 | finishes reducing for flow 0 (from NI 0) to parent HMC-12 (to NI 0) at timestep 1
2015395 | HMC-14 | finishes reducing for flow 6 (from NI 0) to parent HMC-15 (to NI 0) at timestep 1
2015395 | HMC-13 | finishes reducing for flow 8 (from NI 0) to parent HMC-9 (to NI 0) at timestep 1
2015396 | HMC-7 | finishes reducing for flow 15 (from NI 0) to parent HMC-3 (to NI 0) at timestep 1
2015396 | HMC-6 | finishes reducing for flow 9 (from NI 0) to parent HMC-10 (to NI 0) at timestep 1
2015396 | HMC-15 | finishes reducing for flow 10 (from NI 0) to parent HMC-11 (to NI 0) at timestep 1
2015396 | HMC-12 | finishes reducing for flow 4 (from NI 0) to parent HMC-13 (to NI 0) at timestep 1
2015396 | HMC-4 | finishes reducing for flow 1 (from NI 0) to parent HMC-8 (to NI 0) at timestep 1
2015396 | HMC-5 | finishes reducing for flow 13 (from NI 0) to parent HMC-6 (to NI 0) at timestep 1
2015396 | HMC-2 | finishes reducing for flow 7 (from NI 0) to parent HMC-1 (to NI 0) at timestep 1
2015396 | HMC-3 | finishes reducing for flow 11 (from NI 0) to parent HMC-2 (to NI 0) at timestep 1
2016449 | HMC-7 | receives full reduce for flow 14 from child HMC-11
2016449 | HMC-6 | receives full reduce for flow 13 from child HMC-5
2016449 | HMC-15 | receives full reduce for flow 6 from child HMC-14
2016449 | HMC-12 | receives full reduce for flow 0 from child HMC-8
2016449 | HMC-4 | receives full reduce for flow 2 from child HMC-0
2016449 | HMC-5 | receives full reduce for flow 12 from child HMC-9
2016449 | HMC-2 | receives full reduce for flow 11 from child HMC-3
2016449 | HMC-3 | receives full reduce for flow 15 from child HMC-7
2016449 | HMC-9 | receives full reduce for flow 8 from child HMC-13
2016449 | HMC-10 | receives full reduce for flow 9 from child HMC-6
2016449 | HMC-11 | receives full reduce for flow 10 from child HMC-15
2016449 | HMC-1 | receives full reduce for flow 7 from child HMC-2
2016449 | HMC-0 | receives full reduce for flow 3 from child HMC-1
2016449 | HMC-8 | receives full reduce for flow 1 from child HMC-4
2016449 | HMC-14 | receives full reduce for flow 5 from child HMC-10
2016449 | HMC-13 | receives full reduce for flow 4 from child HMC-12
2016450 | HMC-7 | starts aggregation, computation state: aggregating, communication state: reduce-scatter
2016450 | HMC-6 | starts aggregation, computation state: aggregating, communication state: reduce-scatter
2016450 | HMC-15 | starts aggregation, computation state: aggregating, communication state: reduce-scatter
2016450 | HMC-12 | starts aggregation, computation state: aggregating, communication state: reduce-scatter
2016450 | HMC-4 | starts aggregation, computation state: aggregating, communication state: reduce-scatter
2016450 | HMC-5 | starts aggregation, computation state: aggregating, communication state: reduce-scatter
2016450 | HMC-2 | starts aggregation, computation state: aggregating, communication state: reduce-scatter
2016450 | HMC-3 | starts aggregation, computation state: aggregating, communication state: reduce-scatter
2016450 | HMC-9 | starts aggregation, computation state: aggregating, communication state: reduce-scatter
2016450 | HMC-11 | starts aggregation, computation state: aggregating, communication state: reduce-scatter
2016450 | HMC-14 | starts aggregation, computation state: aggregating, communication state: reduce-scatter
2016450 | HMC-1 | starts aggregation, computation state: aggregating, communication state: reduce-scatter
2016450 | HMC-0 | starts aggregation, computation state: aggregating, communication state: reduce-scatter
2016450 | HMC-10 | starts aggregation, computation state: aggregating, communication state: reduce-scatter
2016450 | HMC-8 | starts aggregation, computation state: aggregating, communication state: reduce-scatter
2016450 | HMC-13 | starts aggregation, computation state: aggregating, communication state: reduce-scatter
2021330 | HMC-7 | clear pending aggregation for flow 14 from child HMC-11
2021330 | HMC-7 | finishes aggregation , computation state: idle, communication state: reduce-scatter
2021330 | HMC-6 | clear pending aggregation for flow 13 from child HMC-5
2021330 | HMC-6 | finishes aggregation , computation state: idle, communication state: reduce-scatter
2021330 | HMC-15 | clear pending aggregation for flow 6 from child HMC-14
2021330 | HMC-15 | finishes aggregation , computation state: idle, communication state: reduce-scatter
2021330 | HMC-12 | clear pending aggregation for flow 0 from child HMC-8
2021330 | HMC-12 | finishes aggregation , computation state: idle, communication state: reduce-scatter
2021330 | HMC-4 | clear pending aggregation for flow 2 from child HMC-0
2021330 | HMC-4 | finishes aggregation , computation state: idle, communication state: reduce-scatter
2021330 | HMC-5 | clear pending aggregation for flow 12 from child HMC-9
2021330 | HMC-5 | finishes aggregation , computation state: idle, communication state: reduce-scatter
2021330 | HMC-2 | clear pending aggregation for flow 11 from child HMC-3
2021330 | HMC-2 | finishes aggregation , computation state: idle, communication state: reduce-scatter
2021330 | HMC-3 | clear pending aggregation for flow 15 from child HMC-7
2021330 | HMC-3 | finishes aggregation , computation state: idle, communication state: reduce-scatter
2021330 | HMC-9 | clear pending aggregation for flow 8 from child HMC-13
2021330 | HMC-9 | finishes aggregation , computation state: idle, communication state: reduce-scatter
2021330 | HMC-11 | clear pending aggregation for flow 10 from child HMC-15
2021330 | HMC-11 | finishes aggregation , computation state: idle, communication state: reduce-scatter
2021330 | HMC-14 | clear pending aggregation for flow 5 from child HMC-10
2021330 | HMC-14 | finishes aggregation , computation state: idle, communication state: reduce-scatter
2021330 | HMC-1 | clear pending aggregation for flow 7 from child HMC-2
2021330 | HMC-1 | finishes aggregation , computation state: idle, communication state: reduce-scatter
2021330 | HMC-0 | clear pending aggregation for flow 3 from child HMC-1
2021330 | HMC-0 | finishes aggregation , computation state: idle, communication state: reduce-scatter
2021330 | HMC-10 | clear pending aggregation for flow 9 from child HMC-6
2021330 | HMC-10 | finishes aggregation , computation state: idle, communication state: reduce-scatter
2021330 | HMC-8 | clear pending aggregation for flow 1 from child HMC-4
2021330 | HMC-8 | finishes aggregation , computation state: idle, communication state: reduce-scatter
2021330 | HMC-13 | clear pending aggregation for flow 4 from child HMC-12
2021330 | HMC-13 | finishes aggregation , computation state: idle, communication state: reduce-scatter
2021331 | HMC-7 | start reducing for flow 14 (from NI 0) to parent HMC-3 (to NI 0) at timestep 2
2021331 | HMC-6 | start reducing for flow 13 (from NI 0) to parent HMC-10 (to NI 0) at timestep 2
2021331 | HMC-15 | start reducing for flow 6 (from NI 0) to parent HMC-11 (to NI 0) at timestep 2
2021331 | HMC-12 | start reducing for flow 0 (from NI 0) to parent HMC-13 (to NI 0) at timestep 2
2021331 | HMC-4 | start reducing for flow 2 (from NI 0) to parent HMC-8 (to NI 0) at timestep 2
2021331 | HMC-5 | start reducing for flow 12 (from NI 0) to parent HMC-6 (to NI 0) at timestep 2
2021331 | HMC-2 | start reducing for flow 11 (from NI 0) to parent HMC-1 (to NI 0) at timestep 2
2021331 | HMC-3 | start reducing for flow 15 (from NI 0) to parent HMC-2 (to NI 0) at timestep 2
2021331 | HMC-9 | start reducing for flow 8 (from NI 0) to parent HMC-5 (to NI 0) at timestep 2
2021331 | HMC-11 | start reducing for flow 10 (from NI 0) to parent HMC-7 (to NI 0) at timestep 2
2021331 | HMC-14 | start reducing for flow 5 (from NI 0) to parent HMC-15 (to NI 0) at timestep 2
2021331 | HMC-1 | start reducing for flow 7 (from NI 0) to parent HMC-0 (to NI 0) at timestep 2
2021331 | HMC-0 | start reducing for flow 3 (from NI 0) to parent HMC-4 (to NI 0) at timestep 2
2021331 | HMC-10 | start reducing for flow 9 (from NI 0) to parent HMC-14 (to NI 0) at timestep 2
2021331 | HMC-8 | start reducing for flow 1 (from NI 0) to parent HMC-12 (to NI 0) at timestep 2
2021331 | HMC-13 | start reducing for flow 4 (from NI 0) to parent HMC-9 (to NI 0) at timestep 2
2061816 | HMC-9 | finishes reducing for flow 8 (from NI 0) to parent HMC-5 (to NI 0) at timestep 2
2061816 | HMC-10 | finishes reducing for flow 9 (from NI 0) to parent HMC-14 (to NI 0) at timestep 2
2061816 | HMC-11 | finishes reducing for flow 10 (from NI 0) to parent HMC-7 (to NI 0) at timestep 2
2061816 | HMC-0 | finishes reducing for flow 3 (from NI 0) to parent HMC-4 (to NI 0) at timestep 2
2061816 | HMC-1 | finishes reducing for flow 7 (from NI 0) to parent HMC-0 (to NI 0) at timestep 2
2061816 | HMC-8 | finishes reducing for flow 1 (from NI 0) to parent HMC-12 (to NI 0) at timestep 2
2061816 | HMC-14 | finishes reducing for flow 5 (from NI 0) to parent HMC-15 (to NI 0) at timestep 2
2061816 | HMC-13 | finishes reducing for flow 4 (from NI 0) to parent HMC-9 (to NI 0) at timestep 2
2061817 | HMC-7 | finishes reducing for flow 14 (from NI 0) to parent HMC-3 (to NI 0) at timestep 2
2061817 | HMC-6 | finishes reducing for flow 13 (from NI 0) to parent HMC-10 (to NI 0) at timestep 2
2061817 | HMC-15 | finishes reducing for flow 6 (from NI 0) to parent HMC-11 (to NI 0) at timestep 2
2061817 | HMC-12 | finishes reducing for flow 0 (from NI 0) to parent HMC-13 (to NI 0) at timestep 2
2061817 | HMC-4 | finishes reducing for flow 2 (from NI 0) to parent HMC-8 (to NI 0) at timestep 2
2061817 | HMC-5 | finishes reducing for flow 12 (from NI 0) to parent HMC-6 (to NI 0) at timestep 2
2061817 | HMC-2 | finishes reducing for flow 11 (from NI 0) to parent HMC-1 (to NI 0) at timestep 2
2061817 | HMC-3 | finishes reducing for flow 15 (from NI 0) to parent HMC-2 (to NI 0) at timestep 2
2062870 | HMC-7 | receives full reduce for flow 10 from child HMC-11
2062870 | HMC-6 | receives full reduce for flow 12 from child HMC-5
2062870 | HMC-15 | receives full reduce for flow 5 from child HMC-14
2062870 | HMC-12 | receives full reduce for flow 1 from child HMC-8
2062870 | HMC-4 | receives full reduce for flow 3 from child HMC-0
2062870 | HMC-5 | receives full reduce for flow 8 from child HMC-9
2062870 | HMC-2 | receives full reduce for flow 15 from child HMC-3
2062870 | HMC-3 | receives full reduce for flow 14 from child HMC-7
2062870 | HMC-9 | receives full reduce for flow 4 from child HMC-13
2062870 | HMC-10 | receives full reduce for flow 13 from child HMC-6
2062870 | HMC-11 | receives full reduce for flow 6 from child HMC-15
2062870 | HMC-1 | receives full reduce for flow 11 from child HMC-2
2062870 | HMC-0 | receives full reduce for flow 7 from child HMC-1
2062870 | HMC-8 | receives full reduce for flow 2 from child HMC-4
2062870 | HMC-14 | receives full reduce for flow 9 from child HMC-10
2062870 | HMC-13 | receives full reduce for flow 0 from child HMC-12
2062871 | HMC-7 | starts aggregation, computation state: aggregating, communication state: reduce-scatter
2062871 | HMC-6 | starts aggregation, computation state: aggregating, communication state: reduce-scatter
2062871 | HMC-15 | starts aggregation, computation state: aggregating, communication state: reduce-scatter
2062871 | HMC-12 | starts aggregation, computation state: aggregating, communication state: reduce-scatter
2062871 | HMC-4 | starts aggregation, computation state: aggregating, communication state: reduce-scatter
2062871 | HMC-5 | starts aggregation, computation state: aggregating, communication state: reduce-scatter
2062871 | HMC-2 | starts aggregation, computation state: aggregating, communication state: reduce-scatter
2062871 | HMC-3 | starts aggregation, computation state: aggregating, communication state: reduce-scatter
2062871 | HMC-9 | starts aggregation, computation state: aggregating, communication state: reduce-scatter
2062871 | HMC-11 | starts aggregation, computation state: aggregating, communication state: reduce-scatter
2062871 | HMC-14 | starts aggregation, computation state: aggregating, communication state: reduce-scatter
2062871 | HMC-1 | starts aggregation, computation state: aggregating, communication state: reduce-scatter
2062871 | HMC-0 | starts aggregation, computation state: aggregating, communication state: reduce-scatter
2062871 | HMC-10 | starts aggregation, computation state: aggregating, communication state: reduce-scatter
2062871 | HMC-8 | starts aggregation, computation state: aggregating, communication state: reduce-scatter
2062871 | HMC-13 | starts aggregation, computation state: aggregating, communication state: reduce-scatter
2067751 | HMC-7 | clear pending aggregation for flow 10 from child HMC-11
2067751 | HMC-7 | finishes aggregation , computation state: idle, communication state: reduce-scatter
2067751 | HMC-6 | clear pending aggregation for flow 12 from child HMC-5
2067751 | HMC-6 | finishes aggregation , computation state: idle, communication state: reduce-scatter
2067751 | HMC-15 | clear pending aggregation for flow 5 from child HMC-14
2067751 | HMC-15 | finishes aggregation , computation state: idle, communication state: reduce-scatter
2067751 | HMC-12 | clear pending aggregation for flow 1 from child HMC-8
2067751 | HMC-12 | finishes aggregation , computation state: idle, communication state: reduce-scatter
2067751 | HMC-4 | clear pending aggregation for flow 3 from child HMC-0
2067751 | HMC-4 | finishes aggregation , computation state: idle, communication state: reduce-scatter
2067751 | HMC-5 | clear pending aggregation for flow 8 from child HMC-9
2067751 | HMC-5 | finishes aggregation , computation state: idle, communication state: reduce-scatter
2067751 | HMC-2 | clear pending aggregation for flow 15 from child HMC-3
2067751 | HMC-2 | finishes aggregation , computation state: idle, communication state: reduce-scatter
2067751 | HMC-3 | clear pending aggregation for flow 14 from child HMC-7
2067751 | HMC-3 | finishes aggregation , computation state: idle, communication state: reduce-scatter
2067751 | HMC-9 | clear pending aggregation for flow 4 from child HMC-13
2067751 | HMC-9 | finishes aggregation , computation state: idle, communication state: reduce-scatter
2067751 | HMC-11 | clear pending aggregation for flow 6 from child HMC-15
2067751 | HMC-11 | finishes aggregation , computation state: idle, communication state: reduce-scatter
2067751 | HMC-14 | clear pending aggregation for flow 9 from child HMC-10
2067751 | HMC-14 | finishes aggregation , computation state: idle, communication state: reduce-scatter
2067751 | HMC-1 | clear pending aggregation for flow 11 from child HMC-2
2067751 | HMC-1 | finishes aggregation , computation state: idle, communication state: reduce-scatter
2067751 | HMC-0 | clear pending aggregation for flow 7 from child HMC-1
2067751 | HMC-0 | finishes aggregation , computation state: idle, communication state: reduce-scatter
2067751 | HMC-10 | clear pending aggregation for flow 13 from child HMC-6
2067751 | HMC-10 | finishes aggregation , computation state: idle, communication state: reduce-scatter
2067751 | HMC-8 | clear pending aggregation for flow 2 from child HMC-4
2067751 | HMC-8 | finishes aggregation , computation state: idle, communication state: reduce-scatter
2067751 | HMC-13 | clear pending aggregation for flow 0 from child HMC-12
2067751 | HMC-13 | finishes aggregation , computation state: idle, communication state: reduce-scatter
2067752 | HMC-7 | start reducing for flow 10 (from NI 0) to parent HMC-3 (to NI 0) at timestep 3
2067752 | HMC-6 | start reducing for flow 12 (from NI 0) to parent HMC-10 (to NI 0) at timestep 3
2067752 | HMC-15 | start reducing for flow 5 (from NI 0) to parent HMC-11 (to NI 0) at timestep 3
2067752 | HMC-12 | start reducing for flow 1 (from NI 0) to parent HMC-13 (to NI 0) at timestep 3
2067752 | HMC-4 | start reducing for flow 3 (from NI 0) to parent HMC-8 (to NI 0) at timestep 3
2067752 | HMC-5 | start reducing for flow 8 (from NI 0) to parent HMC-6 (to NI 0) at timestep 3
2067752 | HMC-2 | start reducing for flow 15 (from NI 0) to parent HMC-1 (to NI 0) at timestep 3
2067752 | HMC-3 | start reducing for flow 14 (from NI 0) to parent HMC-2 (to NI 0) at timestep 3
2067752 | HMC-9 | start reducing for flow 4 (from NI 0) to parent HMC-5 (to NI 0) at timestep 3
2067752 | HMC-11 | start reducing for flow 6 (from NI 0) to parent HMC-7 (to NI 0) at timestep 3
2067752 | HMC-14 | start reducing for flow 9 (from NI 0) to parent HMC-15 (to NI 0) at timestep 3
2067752 | HMC-1 | start reducing for flow 11 (from NI 0) to parent HMC-0 (to NI 0) at timestep 3
2067752 | HMC-0 | start reducing for flow 7 (from NI 0) to parent HMC-4 (to NI 0) at timestep 3
2067752 | HMC-10 | start reducing for flow 13 (from NI 0) to parent HMC-14 (to NI 0) at timestep 3
2067752 | HMC-8 | start reducing for flow 2 (from NI 0) to parent HMC-12 (to NI 0) at timestep 3
2067752 | HMC-13 | start reducing for flow 0 (from NI 0) to parent HMC-9 (to NI 0) at timestep 3
2108237 | HMC-9 | finishes reducing for flow 4 (from NI 0) to parent HMC-5 (to NI 0) at timestep 3
2108237 | HMC-10 | finishes reducing for flow 13 (from NI 0) to parent HMC-14 (to NI 0) at timestep 3
2108237 | HMC-11 | finishes reducing for flow 6 (from NI 0) to parent HMC-7 (to NI 0) at timestep 3
2108237 | HMC-0 | finishes reducing for flow 7 (from NI 0) to parent HMC-4 (to NI 0) at timestep 3
2108237 | HMC-1 | finishes reducing for flow 11 (from NI 0) to parent HMC-0 (to NI 0) at timestep 3
2108237 | HMC-8 | finishes reducing for flow 2 (from NI 0) to parent HMC-12 (to NI 0) at timestep 3
2108237 | HMC-14 | finishes reducing for flow 9 (from NI 0) to parent HMC-15 (to NI 0) at timestep 3
2108237 | HMC-13 | finishes reducing for flow 0 (from NI 0) to parent HMC-9 (to NI 0) at timestep 3
2108238 | HMC-7 | finishes reducing for flow 10 (from NI 0) to parent HMC-3 (to NI 0) at timestep 3
2108238 | HMC-6 | finishes reducing for flow 12 (from NI 0) to parent HMC-10 (to NI 0) at timestep 3
2108238 | HMC-15 | finishes reducing for flow 5 (from NI 0) to parent HMC-11 (to NI 0) at timestep 3
2108238 | HMC-12 | finishes reducing for flow 1 (from NI 0) to parent HMC-13 (to NI 0) at timestep 3
2108238 | HMC-4 | finishes reducing for flow 3 (from NI 0) to parent HMC-8 (to NI 0) at timestep 3
2108238 | HMC-5 | finishes reducing for flow 8 (from NI 0) to parent HMC-6 (to NI 0) at timestep 3
2108238 | HMC-2 | finishes reducing for flow 15 (from NI 0) to parent HMC-1 (to NI 0) at timestep 3
2108238 | HMC-3 | finishes reducing for flow 14 (from NI 0) to parent HMC-2 (to NI 0) at timestep 3
2109291 | HMC-7 | receives full reduce for flow 6 from child HMC-11
2109291 | HMC-6 | receives full reduce for flow 8 from child HMC-5
2109291 | HMC-15 | receives full reduce for flow 9 from child HMC-14
2109291 | HMC-12 | receives full reduce for flow 2 from child HMC-8
2109291 | HMC-4 | receives full reduce for flow 7 from child HMC-0
2109291 | HMC-5 | receives full reduce for flow 4 from child HMC-9
2109291 | HMC-2 | receives full reduce for flow 14 from child HMC-3
2109291 | HMC-3 | receives full reduce for flow 10 from child HMC-7
2109291 | HMC-9 | receives full reduce for flow 0 from child HMC-13
2109291 | HMC-10 | receives full reduce for flow 12 from child HMC-6
2109291 | HMC-11 | receives full reduce for flow 5 from child HMC-15
2109291 | HMC-1 | receives full reduce for flow 15 from child HMC-2
2109291 | HMC-0 | receives full reduce for flow 11 from child HMC-1
2109291 | HMC-8 | receives full reduce for flow 3 from child HMC-4
2109291 | HMC-14 | receives full reduce for flow 13 from child HMC-10
2109291 | HMC-13 | receives full reduce for flow 1 from child HMC-12
2109292 | HMC-7 | starts aggregation, computation state: aggregating, communication state: reduce-scatter
2109292 | HMC-6 | starts aggregation, computation state: aggregating, communication state: reduce-scatter
2109292 | HMC-15 | starts aggregation, computation state: aggregating, communication state: reduce-scatter
2109292 | HMC-12 | starts aggregation, computation state: aggregating, communication state: reduce-scatter
2109292 | HMC-4 | starts aggregation, computation state: aggregating, communication state: reduce-scatter
2109292 | HMC-5 | starts aggregation, computation state: aggregating, communication state: reduce-scatter
2109292 | HMC-2 | starts aggregation, computation state: aggregating, communication state: reduce-scatter
2109292 | HMC-3 | starts aggregation, computation state: aggregating, communication state: reduce-scatter
2109292 | HMC-9 | starts aggregation, computation state: aggregating, communication state: reduce-scatter
2109292 | HMC-11 | starts aggregation, computation state: aggregating, communication state: reduce-scatter
2109292 | HMC-14 | starts aggregation, computation state: aggregating, communication state: reduce-scatter
2109292 | HMC-1 | starts aggregation, computation state: aggregating, communication state: reduce-scatter
2109292 | HMC-0 | starts aggregation, computation state: aggregating, communication state: reduce-scatter
2109292 | HMC-10 | starts aggregation, computation state: aggregating, communication state: reduce-scatter
2109292 | HMC-8 | starts aggregation, computation state: aggregating, communication state: reduce-scatter
2109292 | HMC-13 | starts aggregation, computation state: aggregating, communication state: reduce-scatter
2114172 | HMC-7 | clear pending aggregation for flow 6 from child HMC-11
2114172 | HMC-7 | finishes aggregation , computation state: idle, communication state: reduce-scatter
2114172 | HMC-6 | clear pending aggregation for flow 8 from child HMC-5
2114172 | HMC-6 | finishes aggregation , computation state: idle, communication state: reduce-scatter
2114172 | HMC-15 | clear pending aggregation for flow 9 from child HMC-14
2114172 | HMC-15 | finishes aggregation , computation state: idle, communication state: reduce-scatter
2114172 | HMC-12 | clear pending aggregation for flow 2 from child HMC-8
2114172 | HMC-12 | finishes aggregation , computation state: idle, communication state: reduce-scatter
2114172 | HMC-4 | clear pending aggregation for flow 7 from child HMC-0
2114172 | HMC-4 | finishes aggregation , computation state: idle, communication state: reduce-scatter
2114172 | HMC-5 | clear pending aggregation for flow 4 from child HMC-9
2114172 | HMC-5 | finishes aggregation , computation state: idle, communication state: reduce-scatter
2114172 | HMC-2 | clear pending aggregation for flow 14 from child HMC-3
2114172 | HMC-2 | finishes aggregation , computation state: idle, communication state: reduce-scatter
2114172 | HMC-3 | clear pending aggregation for flow 10 from child HMC-7
2114172 | HMC-3 | finishes aggregation , computation state: idle, communication state: reduce-scatter
2114172 | HMC-9 | clear pending aggregation for flow 0 from child HMC-13
2114172 | HMC-9 | finishes aggregation , computation state: idle, communication state: reduce-scatter
2114172 | HMC-11 | clear pending aggregation for flow 5 from child HMC-15
2114172 | HMC-11 | finishes aggregation , computation state: idle, communication state: reduce-scatter
2114172 | HMC-14 | clear pending aggregation for flow 13 from child HMC-10
2114172 | HMC-14 | finishes aggregation , computation state: idle, communication state: reduce-scatter
2114172 | HMC-1 | clear pending aggregation for flow 15 from child HMC-2
2114172 | HMC-1 | finishes aggregation , computation state: idle, communication state: reduce-scatter
2114172 | HMC-0 | clear pending aggregation for flow 11 from child HMC-1
2114172 | HMC-0 | finishes aggregation , computation state: idle, communication state: reduce-scatter
2114172 | HMC-10 | clear pending aggregation for flow 12 from child HMC-6
2114172 | HMC-10 | finishes aggregation , computation state: idle, communication state: reduce-scatter
2114172 | HMC-8 | clear pending aggregation for flow 3 from child HMC-4
2114172 | HMC-8 | finishes aggregation , computation state: idle, communication state: reduce-scatter
2114172 | HMC-13 | clear pending aggregation for flow 1 from child HMC-12
2114172 | HMC-13 | finishes aggregation , computation state: idle, communication state: reduce-scatter
2114173 | HMC-7 | start reducing for flow 6 (from NI 0) to parent HMC-3 (to NI 0) at timestep 4
2114173 | HMC-6 | start reducing for flow 8 (from NI 0) to parent HMC-10 (to NI 0) at timestep 4
2114173 | HMC-15 | start reducing for flow 9 (from NI 0) to parent HMC-11 (to NI 0) at timestep 4
2114173 | HMC-12 | start reducing for flow 2 (from NI 0) to parent HMC-13 (to NI 0) at timestep 4
2114173 | HMC-4 | start reducing for flow 7 (from NI 0) to parent HMC-8 (to NI 0) at timestep 4
2114173 | HMC-5 | start reducing for flow 4 (from NI 0) to parent HMC-6 (to NI 0) at timestep 4
2114173 | HMC-2 | start reducing for flow 14 (from NI 0) to parent HMC-1 (to NI 0) at timestep 4
2114173 | HMC-3 | start reducing for flow 10 (from NI 0) to parent HMC-2 (to NI 0) at timestep 4
2114173 | HMC-9 | start reducing for flow 0 (from NI 0) to parent HMC-5 (to NI 0) at timestep 4
2114173 | HMC-11 | start reducing for flow 5 (from NI 0) to parent HMC-7 (to NI 0) at timestep 4
2114173 | HMC-14 | start reducing for flow 13 (from NI 0) to parent HMC-15 (to NI 0) at timestep 4
2114173 | HMC-1 | start reducing for flow 15 (from NI 0) to parent HMC-0 (to NI 0) at timestep 4
2114173 | HMC-0 | start reducing for flow 11 (from NI 0) to parent HMC-4 (to NI 0) at timestep 4
2114173 | HMC-10 | start reducing for flow 12 (from NI 0) to parent HMC-14 (to NI 0) at timestep 4
2114173 | HMC-8 | start reducing for flow 3 (from NI 0) to parent HMC-12 (to NI 0) at timestep 4
2114173 | HMC-13 | start reducing for flow 1 (from NI 0) to parent HMC-9 (to NI 0) at timestep 4
2154658 | HMC-9 | finishes reducing for flow 0 (from NI 0) to parent HMC-5 (to NI 0) at timestep 4
2154658 | HMC-10 | finishes reducing for flow 12 (from NI 0) to parent HMC-14 (to NI 0) at timestep 4
2154658 | HMC-11 | finishes reducing for flow 5 (from NI 0) to parent HMC-7 (to NI 0) at timestep 4
2154658 | HMC-0 | finishes reducing for flow 11 (from NI 0) to parent HMC-4 (to NI 0) at timestep 4
2154658 | HMC-1 | finishes reducing for flow 15 (from NI 0) to parent HMC-0 (to NI 0) at timestep 4
2154658 | HMC-8 | finishes reducing for flow 3 (from NI 0) to parent HMC-12 (to NI 0) at timestep 4
2154658 | HMC-14 | finishes reducing for flow 13 (from NI 0) to parent HMC-15 (to NI 0) at timestep 4
2154658 | HMC-13 | finishes reducing for flow 1 (from NI 0) to parent HMC-9 (to NI 0) at timestep 4
2154659 | HMC-7 | finishes reducing for flow 6 (from NI 0) to parent HMC-3 (to NI 0) at timestep 4
2154659 | HMC-6 | finishes reducing for flow 8 (from NI 0) to parent HMC-10 (to NI 0) at timestep 4
2154659 | HMC-15 | finishes reducing for flow 9 (from NI 0) to parent HMC-11 (to NI 0) at timestep 4
2154659 | HMC-12 | finishes reducing for flow 2 (from NI 0) to parent HMC-13 (to NI 0) at timestep 4
2154659 | HMC-4 | finishes reducing for flow 7 (from NI 0) to parent HMC-8 (to NI 0) at timestep 4
2154659 | HMC-5 | finishes reducing for flow 4 (from NI 0) to parent HMC-6 (to NI 0) at timestep 4
2154659 | HMC-2 | finishes reducing for flow 14 (from NI 0) to parent HMC-1 (to NI 0) at timestep 4
2154659 | HMC-3 | finishes reducing for flow 10 (from NI 0) to parent HMC-2 (to NI 0) at timestep 4
2155712 | HMC-7 | receives full reduce for flow 5 from child HMC-11
2155712 | HMC-6 | receives full reduce for flow 4 from child HMC-5
2155712 | HMC-15 | receives full reduce for flow 13 from child HMC-14
2155712 | HMC-12 | receives full reduce for flow 3 from child HMC-8
2155712 | HMC-4 | receives full reduce for flow 11 from child HMC-0
2155712 | HMC-5 | receives full reduce for flow 0 from child HMC-9
2155712 | HMC-2 | receives full reduce for flow 10 from child HMC-3
2155712 | HMC-3 | receives full reduce for flow 6 from child HMC-7
2155712 | HMC-9 | receives full reduce for flow 1 from child HMC-13
2155712 | HMC-10 | receives full reduce for flow 8 from child HMC-6
2155712 | HMC-11 | receives full reduce for flow 9 from child HMC-15
2155712 | HMC-1 | receives full reduce for flow 14 from child HMC-2
2155712 | HMC-0 | receives full reduce for flow 15 from child HMC-1
2155712 | HMC-8 | receives full reduce for flow 7 from child HMC-4
2155712 | HMC-14 | receives full reduce for flow 12 from child HMC-10
2155712 | HMC-13 | receives full reduce for flow 2 from child HMC-12
2155713 | HMC-7 | starts aggregation, computation state: aggregating, communication state: reduce-scatter
2155713 | HMC-6 | starts aggregation, computation state: aggregating, communication state: reduce-scatter
2155713 | HMC-15 | starts aggregation, computation state: aggregating, communication state: reduce-scatter
2155713 | HMC-12 | starts aggregation, computation state: aggregating, communication state: reduce-scatter
2155713 | HMC-4 | starts aggregation, computation state: aggregating, communication state: reduce-scatter
2155713 | HMC-5 | starts aggregation, computation state: aggregating, communication state: reduce-scatter
2155713 | HMC-2 | starts aggregation, computation state: aggregating, communication state: reduce-scatter
2155713 | HMC-3 | starts aggregation, computation state: aggregating, communication state: reduce-scatter
2155713 | HMC-9 | starts aggregation, computation state: aggregating, communication state: reduce-scatter
2155713 | HMC-11 | starts aggregation, computation state: aggregating, communication state: reduce-scatter
2155713 | HMC-14 | starts aggregation, computation state: aggregating, communication state: reduce-scatter
2155713 | HMC-1 | starts aggregation, computation state: aggregating, communication state: reduce-scatter
2155713 | HMC-0 | starts aggregation, computation state: aggregating, communication state: reduce-scatter
2155713 | HMC-10 | starts aggregation, computation state: aggregating, communication state: reduce-scatter
2155713 | HMC-8 | starts aggregation, computation state: aggregating, communication state: reduce-scatter
2155713 | HMC-13 | starts aggregation, computation state: aggregating, communication state: reduce-scatter
2160593 | HMC-7 | clear pending aggregation for flow 5 from child HMC-11
2160593 | HMC-7 | finishes aggregation , computation state: idle, communication state: reduce-scatter
2160593 | HMC-6 | clear pending aggregation for flow 4 from child HMC-5
2160593 | HMC-6 | finishes aggregation , computation state: idle, communication state: reduce-scatter
2160593 | HMC-15 | clear pending aggregation for flow 13 from child HMC-14
2160593 | HMC-15 | finishes aggregation , computation state: idle, communication state: reduce-scatter
2160593 | HMC-12 | clear pending aggregation for flow 3 from child HMC-8
2160593 | HMC-12 | finishes aggregation , computation state: idle, communication state: reduce-scatter
2160593 | HMC-4 | clear pending aggregation for flow 11 from child HMC-0
2160593 | HMC-4 | finishes aggregation , computation state: idle, communication state: reduce-scatter
2160593 | HMC-5 | clear pending aggregation for flow 0 from child HMC-9
2160593 | HMC-5 | finishes aggregation , computation state: idle, communication state: reduce-scatter
2160593 | HMC-2 | clear pending aggregation for flow 10 from child HMC-3
2160593 | HMC-2 | finishes aggregation , computation state: idle, communication state: reduce-scatter
2160593 | HMC-3 | clear pending aggregation for flow 6 from child HMC-7
2160593 | HMC-3 | finishes aggregation , computation state: idle, communication state: reduce-scatter
2160593 | HMC-9 | clear pending aggregation for flow 1 from child HMC-13
2160593 | HMC-9 | finishes aggregation , computation state: idle, communication state: reduce-scatter
2160593 | HMC-11 | clear pending aggregation for flow 9 from child HMC-15
2160593 | HMC-11 | finishes aggregation , computation state: idle, communication state: reduce-scatter
2160593 | HMC-14 | clear pending aggregation for flow 12 from child HMC-10
2160593 | HMC-14 | finishes aggregation , computation state: idle, communication state: reduce-scatter
2160593 | HMC-1 | clear pending aggregation for flow 14 from child HMC-2
2160593 | HMC-1 | finishes aggregation , computation state: idle, communication state: reduce-scatter
2160593 | HMC-0 | clear pending aggregation for flow 15 from child HMC-1
2160593 | HMC-0 | finishes aggregation , computation state: idle, communication state: reduce-scatter
2160593 | HMC-10 | clear pending aggregation for flow 8 from child HMC-6
2160593 | HMC-10 | finishes aggregation , computation state: idle, communication state: reduce-scatter
2160593 | HMC-8 | clear pending aggregation for flow 7 from child HMC-4
2160593 | HMC-8 | finishes aggregation , computation state: idle, communication state: reduce-scatter
2160593 | HMC-13 | clear pending aggregation for flow 2 from child HMC-12
2160593 | HMC-13 | finishes aggregation , computation state: idle, communication state: reduce-scatter
2160594 | HMC-7 | start reducing for flow 5 (from NI 0) to parent HMC-3 (to NI 0) at timestep 5
2160594 | HMC-6 | start reducing for flow 4 (from NI 0) to parent HMC-10 (to NI 0) at timestep 5
2160594 | HMC-15 | start reducing for flow 13 (from NI 0) to parent HMC-11 (to NI 0) at timestep 5
2160594 | HMC-12 | start reducing for flow 3 (from NI 0) to parent HMC-13 (to NI 0) at timestep 5
2160594 | HMC-4 | start reducing for flow 11 (from NI 0) to parent HMC-8 (to NI 0) at timestep 5
2160594 | HMC-5 | start reducing for flow 0 (from NI 0) to parent HMC-6 (to NI 0) at timestep 5
2160594 | HMC-2 | start reducing for flow 10 (from NI 0) to parent HMC-1 (to NI 0) at timestep 5
2160594 | HMC-3 | start reducing for flow 6 (from NI 0) to parent HMC-2 (to NI 0) at timestep 5
2160594 | HMC-9 | start reducing for flow 1 (from NI 0) to parent HMC-5 (to NI 0) at timestep 5
2160594 | HMC-11 | start reducing for flow 9 (from NI 0) to parent HMC-7 (to NI 0) at timestep 5
2160594 | HMC-14 | start reducing for flow 12 (from NI 0) to parent HMC-15 (to NI 0) at timestep 5
2160594 | HMC-1 | start reducing for flow 14 (from NI 0) to parent HMC-0 (to NI 0) at timestep 5
2160594 | HMC-0 | start reducing for flow 15 (from NI 0) to parent HMC-4 (to NI 0) at timestep 5
2160594 | HMC-10 | start reducing for flow 8 (from NI 0) to parent HMC-14 (to NI 0) at timestep 5
2160594 | HMC-8 | start reducing for flow 7 (from NI 0) to parent HMC-12 (to NI 0) at timestep 5
2160594 | HMC-13 | start reducing for flow 2 (from NI 0) to parent HMC-9 (to NI 0) at timestep 5
2201079 | HMC-9 | finishes reducing for flow 1 (from NI 0) to parent HMC-5 (to NI 0) at timestep 5
2201079 | HMC-10 | finishes reducing for flow 8 (from NI 0) to parent HMC-14 (to NI 0) at timestep 5
2201079 | HMC-11 | finishes reducing for flow 9 (from NI 0) to parent HMC-7 (to NI 0) at timestep 5
2201079 | HMC-0 | finishes reducing for flow 15 (from NI 0) to parent HMC-4 (to NI 0) at timestep 5
2201079 | HMC-1 | finishes reducing for flow 14 (from NI 0) to parent HMC-0 (to NI 0) at timestep 5
2201079 | HMC-8 | finishes reducing for flow 7 (from NI 0) to parent HMC-12 (to NI 0) at timestep 5
2201079 | HMC-14 | finishes reducing for flow 12 (from NI 0) to parent HMC-15 (to NI 0) at timestep 5
2201079 | HMC-13 | finishes reducing for flow 2 (from NI 0) to parent HMC-9 (to NI 0) at timestep 5
2201080 | HMC-7 | finishes reducing for flow 5 (from NI 0) to parent HMC-3 (to NI 0) at timestep 5
2201080 | HMC-6 | finishes reducing for flow 4 (from NI 0) to parent HMC-10 (to NI 0) at timestep 5
2201080 | HMC-15 | finishes reducing for flow 13 (from NI 0) to parent HMC-11 (to NI 0) at timestep 5
2201080 | HMC-12 | finishes reducing for flow 3 (from NI 0) to parent HMC-13 (to NI 0) at timestep 5
2201080 | HMC-4 | finishes reducing for flow 11 (from NI 0) to parent HMC-8 (to NI 0) at timestep 5
2201080 | HMC-5 | finishes reducing for flow 0 (from NI 0) to parent HMC-6 (to NI 0) at timestep 5
2201080 | HMC-2 | finishes reducing for flow 10 (from NI 0) to parent HMC-1 (to NI 0) at timestep 5
2201080 | HMC-3 | finishes reducing for flow 6 (from NI 0) to parent HMC-2 (to NI 0) at timestep 5
2202133 | HMC-7 | receives full reduce for flow 9 from child HMC-11
2202133 | HMC-6 | receives full reduce for flow 0 from child HMC-5
2202133 | HMC-15 | receives full reduce for flow 12 from child HMC-14
2202133 | HMC-12 | receives full reduce for flow 7 from child HMC-8
2202133 | HMC-4 | receives full reduce for flow 15 from child HMC-0
2202133 | HMC-5 | receives full reduce for flow 1 from child HMC-9
2202133 | HMC-2 | receives full reduce for flow 6 from child HMC-3
2202133 | HMC-3 | receives full reduce for flow 5 from child HMC-7
2202133 | HMC-9 | receives full reduce for flow 2 from child HMC-13
2202133 | HMC-10 | receives full reduce for flow 4 from child HMC-6
2202133 | HMC-11 | receives full reduce for flow 13 from child HMC-15
2202133 | HMC-1 | receives full reduce for flow 10 from child HMC-2
2202133 | HMC-0 | receives full reduce for flow 14 from child HMC-1
2202133 | HMC-8 | receives full reduce for flow 11 from child HMC-4
2202133 | HMC-14 | receives full reduce for flow 8 from child HMC-10
2202133 | HMC-13 | receives full reduce for flow 3 from child HMC-12
2202134 | HMC-7 | starts aggregation, computation state: aggregating, communication state: reduce-scatter
2202134 | HMC-6 | starts aggregation, computation state: aggregating, communication state: reduce-scatter
2202134 | HMC-15 | starts aggregation, computation state: aggregating, communication state: reduce-scatter
2202134 | HMC-12 | starts aggregation, computation state: aggregating, communication state: reduce-scatter
2202134 | HMC-4 | starts aggregation, computation state: aggregating, communication state: reduce-scatter
2202134 | HMC-5 | starts aggregation, computation state: aggregating, communication state: reduce-scatter
2202134 | HMC-2 | starts aggregation, computation state: aggregating, communication state: reduce-scatter
2202134 | HMC-3 | starts aggregation, computation state: aggregating, communication state: reduce-scatter
2202134 | HMC-9 | starts aggregation, computation state: aggregating, communication state: reduce-scatter
2202134 | HMC-11 | starts aggregation, computation state: aggregating, communication state: reduce-scatter
2202134 | HMC-14 | starts aggregation, computation state: aggregating, communication state: reduce-scatter
2202134 | HMC-1 | starts aggregation, computation state: aggregating, communication state: reduce-scatter
2202134 | HMC-0 | starts aggregation, computation state: aggregating, communication state: reduce-scatter
2202134 | HMC-10 | starts aggregation, computation state: aggregating, communication state: reduce-scatter
2202134 | HMC-8 | starts aggregation, computation state: aggregating, communication state: reduce-scatter
2202134 | HMC-13 | starts aggregation, computation state: aggregating, communication state: reduce-scatter
2207014 | HMC-7 | clear pending aggregation for flow 9 from child HMC-11
2207014 | HMC-7 | finishes aggregation , computation state: idle, communication state: reduce-scatter
2207014 | HMC-6 | clear pending aggregation for flow 0 from child HMC-5
2207014 | HMC-6 | finishes aggregation , computation state: idle, communication state: reduce-scatter
2207014 | HMC-15 | clear pending aggregation for flow 12 from child HMC-14
2207014 | HMC-15 | finishes aggregation , computation state: idle, communication state: reduce-scatter
2207014 | HMC-12 | clear pending aggregation for flow 7 from child HMC-8
2207014 | HMC-12 | finishes aggregation , computation state: idle, communication state: reduce-scatter
2207014 | HMC-4 | clear pending aggregation for flow 15 from child HMC-0
2207014 | HMC-4 | finishes aggregation , computation state: idle, communication state: reduce-scatter
2207014 | HMC-5 | clear pending aggregation for flow 1 from child HMC-9
2207014 | HMC-5 | finishes aggregation , computation state: idle, communication state: reduce-scatter
2207014 | HMC-2 | clear pending aggregation for flow 6 from child HMC-3
2207014 | HMC-2 | finishes aggregation , computation state: idle, communication state: reduce-scatter
2207014 | HMC-3 | clear pending aggregation for flow 5 from child HMC-7
2207014 | HMC-3 | finishes aggregation , computation state: idle, communication state: reduce-scatter
2207014 | HMC-9 | clear pending aggregation for flow 2 from child HMC-13
2207014 | HMC-9 | finishes aggregation , computation state: idle, communication state: reduce-scatter
2207014 | HMC-11 | clear pending aggregation for flow 13 from child HMC-15
2207014 | HMC-11 | finishes aggregation , computation state: idle, communication state: reduce-scatter
2207014 | HMC-14 | clear pending aggregation for flow 8 from child HMC-10
2207014 | HMC-14 | finishes aggregation , computation state: idle, communication state: reduce-scatter
2207014 | HMC-1 | clear pending aggregation for flow 10 from child HMC-2
2207014 | HMC-1 | finishes aggregation , computation state: idle, communication state: reduce-scatter
2207014 | HMC-0 | clear pending aggregation for flow 14 from child HMC-1
2207014 | HMC-0 | finishes aggregation , computation state: idle, communication state: reduce-scatter
2207014 | HMC-10 | clear pending aggregation for flow 4 from child HMC-6
2207014 | HMC-10 | finishes aggregation , computation state: idle, communication state: reduce-scatter
2207014 | HMC-8 | clear pending aggregation for flow 11 from child HMC-4
2207014 | HMC-8 | finishes aggregation , computation state: idle, communication state: reduce-scatter
2207014 | HMC-13 | clear pending aggregation for flow 3 from child HMC-12
2207014 | HMC-13 | finishes aggregation , computation state: idle, communication state: reduce-scatter
2207015 | HMC-7 | start reducing for flow 9 (from NI 0) to parent HMC-3 (to NI 0) at timestep 6
2207015 | HMC-6 | start reducing for flow 0 (from NI 0) to parent HMC-10 (to NI 0) at timestep 6
2207015 | HMC-15 | start reducing for flow 12 (from NI 0) to parent HMC-11 (to NI 0) at timestep 6
2207015 | HMC-12 | start reducing for flow 7 (from NI 0) to parent HMC-13 (to NI 0) at timestep 6
2207015 | HMC-4 | start reducing for flow 15 (from NI 0) to parent HMC-8 (to NI 0) at timestep 6
2207015 | HMC-5 | start reducing for flow 1 (from NI 0) to parent HMC-6 (to NI 0) at timestep 6
2207015 | HMC-2 | start reducing for flow 6 (from NI 0) to parent HMC-1 (to NI 0) at timestep 6
2207015 | HMC-3 | start reducing for flow 5 (from NI 0) to parent HMC-2 (to NI 0) at timestep 6
2207015 | HMC-9 | start reducing for flow 2 (from NI 0) to parent HMC-5 (to NI 0) at timestep 6
2207015 | HMC-11 | start reducing for flow 13 (from NI 0) to parent HMC-7 (to NI 0) at timestep 6
2207015 | HMC-14 | start reducing for flow 8 (from NI 0) to parent HMC-15 (to NI 0) at timestep 6
2207015 | HMC-1 | start reducing for flow 10 (from NI 0) to parent HMC-0 (to NI 0) at timestep 6
2207015 | HMC-0 | start reducing for flow 14 (from NI 0) to parent HMC-4 (to NI 0) at timestep 6
2207015 | HMC-10 | start reducing for flow 4 (from NI 0) to parent HMC-14 (to NI 0) at timestep 6
2207015 | HMC-8 | start reducing for flow 11 (from NI 0) to parent HMC-12 (to NI 0) at timestep 6
2207015 | HMC-13 | start reducing for flow 3 (from NI 0) to parent HMC-9 (to NI 0) at timestep 6
2247500 | HMC-9 | finishes reducing for flow 2 (from NI 0) to parent HMC-5 (to NI 0) at timestep 6
2247500 | HMC-10 | finishes reducing for flow 4 (from NI 0) to parent HMC-14 (to NI 0) at timestep 6
2247500 | HMC-11 | finishes reducing for flow 13 (from NI 0) to parent HMC-7 (to NI 0) at timestep 6
2247500 | HMC-0 | finishes reducing for flow 14 (from NI 0) to parent HMC-4 (to NI 0) at timestep 6
2247500 | HMC-1 | finishes reducing for flow 10 (from NI 0) to parent HMC-0 (to NI 0) at timestep 6
2247500 | HMC-8 | finishes reducing for flow 11 (from NI 0) to parent HMC-12 (to NI 0) at timestep 6
2247500 | HMC-14 | finishes reducing for flow 8 (from NI 0) to parent HMC-15 (to NI 0) at timestep 6
2247500 | HMC-13 | finishes reducing for flow 3 (from NI 0) to parent HMC-9 (to NI 0) at timestep 6
2247501 | HMC-7 | finishes reducing for flow 9 (from NI 0) to parent HMC-3 (to NI 0) at timestep 6
2247501 | HMC-6 | finishes reducing for flow 0 (from NI 0) to parent HMC-10 (to NI 0) at timestep 6
2247501 | HMC-15 | finishes reducing for flow 12 (from NI 0) to parent HMC-11 (to NI 0) at timestep 6
2247501 | HMC-12 | finishes reducing for flow 7 (from NI 0) to parent HMC-13 (to NI 0) at timestep 6
2247501 | HMC-4 | finishes reducing for flow 15 (from NI 0) to parent HMC-8 (to NI 0) at timestep 6
2247501 | HMC-5 | finishes reducing for flow 1 (from NI 0) to parent HMC-6 (to NI 0) at timestep 6
2247501 | HMC-2 | finishes reducing for flow 6 (from NI 0) to parent HMC-1 (to NI 0) at timestep 6
2247501 | HMC-3 | finishes reducing for flow 5 (from NI 0) to parent HMC-2 (to NI 0) at timestep 6
2248554 | HMC-7 | receives full reduce for flow 13 from child HMC-11
2248554 | HMC-6 | receives full reduce for flow 1 from child HMC-5
2248554 | HMC-15 | receives full reduce for flow 8 from child HMC-14
2248554 | HMC-12 | receives full reduce for flow 11 from child HMC-8
2248554 | HMC-4 | receives full reduce for flow 14 from child HMC-0
2248554 | HMC-5 | receives full reduce for flow 2 from child HMC-9
2248554 | HMC-2 | receives full reduce for flow 5 from child HMC-3
2248554 | HMC-3 | receives full reduce for flow 9 from child HMC-7
2248554 | HMC-9 | receives full reduce for flow 3 from child HMC-13
2248554 | HMC-10 | receives full reduce for flow 0 from child HMC-6
2248554 | HMC-11 | receives full reduce for flow 12 from child HMC-15
2248554 | HMC-1 | receives full reduce for flow 6 from child HMC-2
2248554 | HMC-0 | receives full reduce for flow 10 from child HMC-1
2248554 | HMC-8 | receives full reduce for flow 15 from child HMC-4
2248554 | HMC-14 | receives full reduce for flow 4 from child HMC-10
2248554 | HMC-13 | receives full reduce for flow 7 from child HMC-12
2248555 | HMC-7 | starts aggregation, computation state: aggregating, communication state: reduce-scatter
2248555 | HMC-6 | starts aggregation, computation state: aggregating, communication state: reduce-scatter
2248555 | HMC-15 | starts aggregation, computation state: aggregating, communication state: reduce-scatter
2248555 | HMC-12 | starts aggregation, computation state: aggregating, communication state: reduce-scatter
2248555 | HMC-4 | starts aggregation, computation state: aggregating, communication state: reduce-scatter
2248555 | HMC-5 | starts aggregation, computation state: aggregating, communication state: reduce-scatter
2248555 | HMC-2 | starts aggregation, computation state: aggregating, communication state: reduce-scatter
2248555 | HMC-3 | starts aggregation, computation state: aggregating, communication state: reduce-scatter
2248555 | HMC-9 | starts aggregation, computation state: aggregating, communication state: reduce-scatter
2248555 | HMC-11 | starts aggregation, computation state: aggregating, communication state: reduce-scatter
2248555 | HMC-14 | starts aggregation, computation state: aggregating, communication state: reduce-scatter
2248555 | HMC-1 | starts aggregation, computation state: aggregating, communication state: reduce-scatter
2248555 | HMC-0 | starts aggregation, computation state: aggregating, communication state: reduce-scatter
2248555 | HMC-10 | starts aggregation, computation state: aggregating, communication state: reduce-scatter
2248555 | HMC-8 | starts aggregation, computation state: aggregating, communication state: reduce-scatter
2248555 | HMC-13 | starts aggregation, computation state: aggregating, communication state: reduce-scatter
2253435 | HMC-7 | clear pending aggregation for flow 13 from child HMC-11
2253435 | HMC-7 | finishes aggregation , computation state: idle, communication state: reduce-scatter
2253435 | HMC-6 | clear pending aggregation for flow 1 from child HMC-5
2253435 | HMC-6 | finishes aggregation , computation state: idle, communication state: reduce-scatter
2253435 | HMC-15 | clear pending aggregation for flow 8 from child HMC-14
2253435 | HMC-15 | finishes aggregation , computation state: idle, communication state: reduce-scatter
2253435 | HMC-12 | clear pending aggregation for flow 11 from child HMC-8
2253435 | HMC-12 | finishes aggregation , computation state: idle, communication state: reduce-scatter
2253435 | HMC-4 | clear pending aggregation for flow 14 from child HMC-0
2253435 | HMC-4 | finishes aggregation , computation state: idle, communication state: reduce-scatter
2253435 | HMC-5 | clear pending aggregation for flow 2 from child HMC-9
2253435 | HMC-5 | finishes aggregation , computation state: idle, communication state: reduce-scatter
2253435 | HMC-2 | clear pending aggregation for flow 5 from child HMC-3
2253435 | HMC-2 | finishes aggregation , computation state: idle, communication state: reduce-scatter
2253435 | HMC-3 | clear pending aggregation for flow 9 from child HMC-7
2253435 | HMC-3 | finishes aggregation , computation state: idle, communication state: reduce-scatter
2253435 | HMC-9 | clear pending aggregation for flow 3 from child HMC-13
2253435 | HMC-9 | finishes aggregation , computation state: idle, communication state: reduce-scatter
2253435 | HMC-11 | clear pending aggregation for flow 12 from child HMC-15
2253435 | HMC-11 | finishes aggregation , computation state: idle, communication state: reduce-scatter
2253435 | HMC-14 | clear pending aggregation for flow 4 from child HMC-10
2253435 | HMC-14 | finishes aggregation , computation state: idle, communication state: reduce-scatter
2253435 | HMC-1 | clear pending aggregation for flow 6 from child HMC-2
2253435 | HMC-1 | finishes aggregation , computation state: idle, communication state: reduce-scatter
2253435 | HMC-0 | clear pending aggregation for flow 10 from child HMC-1
2253435 | HMC-0 | finishes aggregation , computation state: idle, communication state: reduce-scatter
2253435 | HMC-10 | clear pending aggregation for flow 0 from child HMC-6
2253435 | HMC-10 | finishes aggregation , computation state: idle, communication state: reduce-scatter
2253435 | HMC-8 | clear pending aggregation for flow 15 from child HMC-4
2253435 | HMC-8 | finishes aggregation , computation state: idle, communication state: reduce-scatter
2253435 | HMC-13 | clear pending aggregation for flow 7 from child HMC-12
2253435 | HMC-13 | finishes aggregation , computation state: idle, communication state: reduce-scatter
2253436 | HMC-7 | start reducing for flow 13 (from NI 0) to parent HMC-3 (to NI 0) at timestep 7
2253436 | HMC-6 | start reducing for flow 1 (from NI 0) to parent HMC-10 (to NI 0) at timestep 7
2253436 | HMC-15 | start reducing for flow 8 (from NI 0) to parent HMC-11 (to NI 0) at timestep 7
2253436 | HMC-12 | start reducing for flow 11 (from NI 0) to parent HMC-13 (to NI 0) at timestep 7
2253436 | HMC-4 | start reducing for flow 14 (from NI 0) to parent HMC-8 (to NI 0) at timestep 7
2253436 | HMC-5 | start reducing for flow 2 (from NI 0) to parent HMC-6 (to NI 0) at timestep 7
2253436 | HMC-2 | start reducing for flow 5 (from NI 0) to parent HMC-1 (to NI 0) at timestep 7
2253436 | HMC-3 | start reducing for flow 9 (from NI 0) to parent HMC-2 (to NI 0) at timestep 7
2253436 | HMC-9 | start reducing for flow 3 (from NI 0) to parent HMC-5 (to NI 0) at timestep 7
2253436 | HMC-11 | start reducing for flow 12 (from NI 0) to parent HMC-7 (to NI 0) at timestep 7
2253436 | HMC-14 | start reducing for flow 4 (from NI 0) to parent HMC-15 (to NI 0) at timestep 7
2253436 | HMC-1 | start reducing for flow 6 (from NI 0) to parent HMC-0 (to NI 0) at timestep 7
2253436 | HMC-0 | start reducing for flow 10 (from NI 0) to parent HMC-4 (to NI 0) at timestep 7
2253436 | HMC-10 | start reducing for flow 0 (from NI 0) to parent HMC-14 (to NI 0) at timestep 7
2253436 | HMC-8 | start reducing for flow 15 (from NI 0) to parent HMC-12 (to NI 0) at timestep 7
2253436 | HMC-13 | start reducing for flow 7 (from NI 0) to parent HMC-9 (to NI 0) at timestep 7
2293921 | HMC-9 | finishes reducing for flow 3 (from NI 0) to parent HMC-5 (to NI 0) at timestep 7
2293921 | HMC-10 | finishes reducing for flow 0 (from NI 0) to parent HMC-14 (to NI 0) at timestep 7
2293921 | HMC-11 | finishes reducing for flow 12 (from NI 0) to parent HMC-7 (to NI 0) at timestep 7
2293921 | HMC-0 | finishes reducing for flow 10 (from NI 0) to parent HMC-4 (to NI 0) at timestep 7
2293921 | HMC-1 | finishes reducing for flow 6 (from NI 0) to parent HMC-0 (to NI 0) at timestep 7
2293921 | HMC-8 | finishes reducing for flow 15 (from NI 0) to parent HMC-12 (to NI 0) at timestep 7
2293921 | HMC-14 | finishes reducing for flow 4 (from NI 0) to parent HMC-15 (to NI 0) at timestep 7
2293921 | HMC-13 | finishes reducing for flow 7 (from NI 0) to parent HMC-9 (to NI 0) at timestep 7
2293922 | HMC-7 | finishes reducing for flow 13 (from NI 0) to parent HMC-3 (to NI 0) at timestep 7
2293922 | HMC-6 | finishes reducing for flow 1 (from NI 0) to parent HMC-10 (to NI 0) at timestep 7
2293922 | HMC-15 | finishes reducing for flow 8 (from NI 0) to parent HMC-11 (to NI 0) at timestep 7
2293922 | HMC-12 | finishes reducing for flow 11 (from NI 0) to parent HMC-13 (to NI 0) at timestep 7
2293922 | HMC-4 | finishes reducing for flow 14 (from NI 0) to parent HMC-8 (to NI 0) at timestep 7
2293922 | HMC-5 | finishes reducing for flow 2 (from NI 0) to parent HMC-6 (to NI 0) at timestep 7
2293922 | HMC-2 | finishes reducing for flow 5 (from NI 0) to parent HMC-1 (to NI 0) at timestep 7
2293922 | HMC-3 | finishes reducing for flow 9 (from NI 0) to parent HMC-2 (to NI 0) at timestep 7
2294975 | HMC-7 | receives full reduce for flow 12 from child HMC-11
2294975 | HMC-6 | receives full reduce for flow 2 from child HMC-5
2294975 | HMC-15 | receives full reduce for flow 4 from child HMC-14
2294975 | HMC-12 | receives full reduce for flow 15 from child HMC-8
2294975 | HMC-4 | receives full reduce for flow 10 from child HMC-0
2294975 | HMC-5 | receives full reduce for flow 3 from child HMC-9
2294975 | HMC-2 | receives full reduce for flow 9 from child HMC-3
2294975 | HMC-3 | receives full reduce for flow 13 from child HMC-7
2294975 | HMC-9 | receives full reduce for flow 7 from child HMC-13
2294975 | HMC-10 | receives full reduce for flow 1 from child HMC-6
2294975 | HMC-11 | receives full reduce for flow 8 from child HMC-15
2294975 | HMC-1 | receives full reduce for flow 5 from child HMC-2
2294975 | HMC-0 | receives full reduce for flow 6 from child HMC-1
2294975 | HMC-8 | receives full reduce for flow 14 from child HMC-4
2294975 | HMC-14 | receives full reduce for flow 0 from child HMC-10
2294975 | HMC-13 | receives full reduce for flow 11 from child HMC-12
2294976 | HMC-7 | starts aggregation, computation state: aggregating, communication state: reduce-scatter
2294976 | HMC-6 | starts aggregation, computation state: aggregating, communication state: reduce-scatter
2294976 | HMC-15 | starts aggregation, computation state: aggregating, communication state: reduce-scatter
2294976 | HMC-12 | starts aggregation, computation state: aggregating, communication state: reduce-scatter
2294976 | HMC-4 | starts aggregation, computation state: aggregating, communication state: reduce-scatter
2294976 | HMC-5 | starts aggregation, computation state: aggregating, communication state: reduce-scatter
2294976 | HMC-2 | starts aggregation, computation state: aggregating, communication state: reduce-scatter
2294976 | HMC-3 | starts aggregation, computation state: aggregating, communication state: reduce-scatter
2294976 | HMC-9 | starts aggregation, computation state: aggregating, communication state: reduce-scatter
2294976 | HMC-11 | starts aggregation, computation state: aggregating, communication state: reduce-scatter
2294976 | HMC-14 | starts aggregation, computation state: aggregating, communication state: reduce-scatter
2294976 | HMC-1 | starts aggregation, computation state: aggregating, communication state: reduce-scatter
2294976 | HMC-0 | starts aggregation, computation state: aggregating, communication state: reduce-scatter
2294976 | HMC-10 | starts aggregation, computation state: aggregating, communication state: reduce-scatter
2294976 | HMC-8 | starts aggregation, computation state: aggregating, communication state: reduce-scatter
2294976 | HMC-13 | starts aggregation, computation state: aggregating, communication state: reduce-scatter
2299856 | HMC-7 | clear pending aggregation for flow 12 from child HMC-11
2299856 | HMC-7 | finishes aggregation , computation state: idle, communication state: reduce-scatter
2299856 | HMC-6 | clear pending aggregation for flow 2 from child HMC-5
2299856 | HMC-6 | finishes aggregation , computation state: idle, communication state: reduce-scatter
2299856 | HMC-15 | clear pending aggregation for flow 4 from child HMC-14
2299856 | HMC-15 | finishes aggregation , computation state: idle, communication state: reduce-scatter
2299856 | HMC-12 | clear pending aggregation for flow 15 from child HMC-8
2299856 | HMC-12 | finishes aggregation , computation state: idle, communication state: reduce-scatter
2299856 | HMC-4 | clear pending aggregation for flow 10 from child HMC-0
2299856 | HMC-4 | finishes aggregation , computation state: idle, communication state: reduce-scatter
2299856 | HMC-5 | clear pending aggregation for flow 3 from child HMC-9
2299856 | HMC-5 | finishes aggregation , computation state: idle, communication state: reduce-scatter
2299856 | HMC-2 | clear pending aggregation for flow 9 from child HMC-3
2299856 | HMC-2 | finishes aggregation , computation state: idle, communication state: reduce-scatter
2299856 | HMC-3 | clear pending aggregation for flow 13 from child HMC-7
2299856 | HMC-3 | finishes aggregation , computation state: idle, communication state: reduce-scatter
2299856 | HMC-9 | clear pending aggregation for flow 7 from child HMC-13
2299856 | HMC-9 | finishes aggregation , computation state: idle, communication state: reduce-scatter
[...]
3081744 | HMC-9 | receives full gather for flow 0 from parent HMC-5
3081744 | HMC-10 | receives full gather for flow 12 from parent HMC-14
3081744 | HMC-11 | receives full gather for flow 5 from parent HMC-7
3081744 | HMC-1 | receives full gather for flow 15 from parent HMC-0
3081744 | HMC-0 | receives full gather for flow 11 from parent HMC-4
3081744 | HMC-8 | receives full gather for flow 3 from parent HMC-12
3081744 | HMC-14 | receives full gather for flow 13 from parent HMC-15
3081744 | HMC-13 | receives full gather for flow 1 from parent HMC-9
3081745 | HMC-7 | start gathering for flow 6 (from NI 0) to child HMC-11 (to NI 0) at timestep 27
3081745 | HMC-6 | start gathering for flow 8 (from NI 0) to child HMC-5 (to NI 0) at timestep 27
3081745 | HMC-15 | start gathering for flow 9 (from NI 0) to child HMC-14 (to NI 0) at timestep 27
3081745 | HMC-12 | start gathering for flow 2 (from NI 0) to child HMC-8 (to NI 0) at timestep 27
3081745 | HMC-4 | start gathering for flow 7 (from NI 0) to child HMC-0 (to NI 0) at timestep 27
3081745 | HMC-5 | start gathering for flow 4 (from NI 0) to child HMC-9 (to NI 0) at timestep 27
3081745 | HMC-2 | start gathering for flow 14 (from NI 0) to child HMC-3 (to NI 0) at timestep 27
3081745 | HMC-3 | start gathering for flow 10 (from NI 0) to child HMC-7 (to NI 0) at timestep 27
3081745 | HMC-9 | start gathering for flow 0 (from NI 0) to child HMC-13 (to NI 0) at timestep 27
3081745 | HMC-11 | start gathering for flow 5 (from NI 0) to child HMC-15 (to NI 0) at timestep 27
3081745 | HMC-14 | start gathering for flow 13 (from NI 0) to child HMC-10 (to NI 0) at timestep 27
3081745 | HMC-1 | start gathering for flow 15 (from NI 0) to child HMC-2 (to NI 0) at timestep 27
3081745 | HMC-0 | start gathering for flow 11 (from NI 0) to child HMC-1 (to NI 0) at timestep 27
3081745 | HMC-10 | start gathering for flow 12 (from NI 0) to child HMC-6 (to NI 0) at timestep 27
3081745 | HMC-8 | start gathering for flow 3 (from NI 0) to child HMC-4 (to NI 0) at timestep 27
3081745 | HMC-13 | start gathering for flow 1 (from NI 0) to child HMC-12 (to NI 0) at timestep 27
3122230 | HMC-9 | finishes gather for flow 0 (from NI 0) to child HMC-13 (to NI 0) at timestep 27
3122230 | HMC-10 | finishes gather for flow 12 (from NI 0) to child HMC-6 (to NI 0) at timestep 27
3122230 | HMC-11 | finishes gather for flow 5 (from NI 0) to child HMC-15 (to NI 0) at timestep 27
3122230 | HMC-0 | finishes gather for flow 11 (from NI 0) to child HMC-1 (to NI 0) at timestep 27
3122230 | HMC-1 | finishes gather for flow 15 (from NI 0) to child HMC-2 (to NI 0) at timestep 27
3122230 | HMC-8 | finishes gather for flow 3 (from NI 0) to child HMC-4 (to NI 0) at timestep 27
3122230 | HMC-14 | finishes gather for flow 13 (from NI 0) to child HMC-10 (to NI 0) at timestep 27
3122230 | HMC-13 | finishes gather for flow 1 (from NI 0) to child HMC-12 (to NI 0) at timestep 27
3122231 | HMC-7 | finishes gather for flow 6 (from NI 0) to child HMC-11 (to NI 0) at timestep 27
3122231 | HMC-6 | finishes gather for flow 8 (from NI 0) to child HMC-5 (to NI 0) at timestep 27
3122231 | HMC-15 | finishes gather for flow 9 (from NI 0) to child HMC-14 (to NI 0) at timestep 27
3122231 | HMC-12 | finishes gather for flow 2 (from NI 0) to child HMC-8 (to NI 0) at timestep 27
3122231 | HMC-4 | finishes gather for flow 7 (from NI 0) to child HMC-0 (to NI 0) at timestep 27
3122231 | HMC-5 | finishes gather for flow 4 (from NI 0) to child HMC-9 (to NI 0) at timestep 27
3122231 | HMC-2 | finishes gather for flow 14 (from NI 0) to child HMC-3 (to NI 0) at timestep 27
3122231 | HMC-3 | finishes gather for flow 10 (from NI 0) to child HMC-7 (to NI 0) at timestep 27
3123284 | HMC-7 | receives full gather for flow 10 from parent HMC-3
3123284 | HMC-6 | receives full gather for flow 12 from parent HMC-10
3123284 | HMC-15 | receives full gather for flow 5 from parent HMC-11
3123284 | HMC-12 | receives full gather for flow 1 from parent HMC-13
3123284 | HMC-4 | receives full gather for flow 3 from parent HMC-8
3123284 | HMC-5 | receives full gather for flow 8 from parent HMC-6
3123284 | HMC-2 | receives full gather for flow 15 from parent HMC-1
3123284 | HMC-3 | receives full gather for flow 14 from parent HMC-2
3123284 | HMC-9 | receives full gather for flow 4 from parent HMC-5
3123284 | HMC-10 | receives full gather for flow 13 from parent HMC-14
3123284 | HMC-11 | receives full gather for flow 6 from parent HMC-7
3123284 | HMC-1 | receives full gather for flow 11 from parent HMC-0
3123284 | HMC-0 | receives full gather for flow 7 from parent HMC-4
3123284 | HMC-8 | receives full gather for flow 2 from parent HMC-12
3123284 | HMC-14 | receives full gather for flow 9 from parent HMC-15
3123284 | HMC-13 | receives full gather for flow 0 from parent HMC-9
3123285 | HMC-7 | start gathering for flow 10 (from NI 0) to child HMC-11 (to NI 0) at timestep 28
3123285 | HMC-6 | start gathering for flow 12 (from NI 0) to child HMC-5 (to NI 0) at timestep 28
3123285 | HMC-15 | start gathering for flow 5 (from NI 0) to child HMC-14 (to NI 0) at timestep 28
3123285 | HMC-12 | start gathering for flow 1 (from NI 0) to child HMC-8 (to NI 0) at timestep 28
3123285 | HMC-4 | start gathering for flow 3 (from NI 0) to child HMC-0 (to NI 0) at timestep 28
3123285 | HMC-5 | start gathering for flow 8 (from NI 0) to child HMC-9 (to NI 0) at timestep 28
3123285 | HMC-2 | start gathering for flow 15 (from NI 0) to child HMC-3 (to NI 0) at timestep 28
3123285 | HMC-3 | start gathering for flow 14 (from NI 0) to child HMC-7 (to NI 0) at timestep 28
3123285 | HMC-9 | start gathering for flow 4 (from NI 0) to child HMC-13 (to NI 0) at timestep 28
3123285 | HMC-11 | start gathering for flow 6 (from NI 0) to child HMC-15 (to NI 0) at timestep 28
3123285 | HMC-14 | start gathering for flow 9 (from NI 0) to child HMC-10 (to NI 0) at timestep 28
3123285 | HMC-1 | start gathering for flow 11 (from NI 0) to child HMC-2 (to NI 0) at timestep 28
3123285 | HMC-0 | start gathering for flow 7 (from NI 0) to child HMC-1 (to NI 0) at timestep 28
3123285 | HMC-10 | start gathering for flow 13 (from NI 0) to child HMC-6 (to NI 0) at timestep 28
3123285 | HMC-8 | start gathering for flow 2 (from NI 0) to child HMC-4 (to NI 0) at timestep 28
3123285 | HMC-13 | start gathering for flow 0 (from NI 0) to child HMC-12 (to NI 0) at timestep 28
3163770 | HMC-9 | finishes gather for flow 4 (from NI 0) to child HMC-13 (to NI 0) at timestep 28
3163770 | HMC-10 | finishes gather for flow 13 (from NI 0) to child HMC-6 (to NI 0) at timestep 28
3163770 | HMC-11 | finishes gather for flow 6 (from NI 0) to child HMC-15 (to NI 0) at timestep 28
3163770 | HMC-0 | finishes gather for flow 7 (from NI 0) to child HMC-1 (to NI 0) at timestep 28
3163770 | HMC-1 | finishes gather for flow 11 (from NI 0) to child HMC-2 (to NI 0) at timestep 28
3163770 | HMC-8 | finishes gather for flow 2 (from NI 0) to child HMC-4 (to NI 0) at timestep 28
3163770 | HMC-14 | finishes gather for flow 9 (from NI 0) to child HMC-10 (to NI 0) at timestep 28
3163770 | HMC-13 | finishes gather for flow 0 (from NI 0) to child HMC-12 (to NI 0) at timestep 28
3163771 | HMC-7 | finishes gather for flow 10 (from NI 0) to child HMC-11 (to NI 0) at timestep 28
3163771 | HMC-6 | finishes gather for flow 12 (from NI 0) to child HMC-5 (to NI 0) at timestep 28
3163771 | HMC-15 | finishes gather for flow 5 (from NI 0) to child HMC-14 (to NI 0) at timestep 28
3163771 | HMC-12 | finishes gather for flow 1 (from NI 0) to child HMC-8 (to NI 0) at timestep 28
3163771 | HMC-4 | finishes gather for flow 3 (from NI 0) to child HMC-0 (to NI 0) at timestep 28
3163771 | HMC-5 | finishes gather for flow 8 (from NI 0) to child HMC-9 (to NI 0) at timestep 28
3163771 | HMC-2 | finishes gather for flow 15 (from NI 0) to child HMC-3 (to NI 0) at timestep 28
3163771 | HMC-3 | finishes gather for flow 14 (from NI 0) to child HMC-7 (to NI 0) at timestep 28
3164824 | HMC-7 | receives full gather for flow 14 from parent HMC-3
3164824 | HMC-6 | receives full gather for flow 13 from parent HMC-10
3164824 | HMC-15 | receives full gather for flow 6 from parent HMC-11
3164824 | HMC-12 | receives full gather for flow 0 from parent HMC-13
3164824 | HMC-4 | receives full gather for flow 2 from parent HMC-8
3164824 | HMC-5 | receives full gather for flow 12 from parent HMC-6
3164824 | HMC-2 | receives full gather for flow 11 from parent HMC-1
3164824 | HMC-3 | receives full gather for flow 15 from parent HMC-2
3164824 | HMC-9 | receives full gather for flow 8 from parent HMC-5
3164824 | HMC-10 | receives full gather for flow 9 from parent HMC-14
3164824 | HMC-11 | receives full gather for flow 10 from parent HMC-7
3164824 | HMC-1 | receives full gather for flow 7 from parent HMC-0
3164824 | HMC-0 | receives full gather for flow 3 from parent HMC-4
3164824 | HMC-8 | receives full gather for flow 1 from parent HMC-12
3164824 | HMC-14 | receives full gather for flow 5 from parent HMC-15
3164824 | HMC-13 | receives full gather for flow 4 from parent HMC-9
3164825 | HMC-7 | start gathering for flow 14 (from NI 0) to child HMC-11 (to NI 0) at timestep 29
3164825 | HMC-6 | start gathering for flow 13 (from NI 0) to child HMC-5 (to NI 0) at timestep 29
3164825 | HMC-15 | start gathering for flow 6 (from NI 0) to child HMC-14 (to NI 0) at timestep 29
3164825 | HMC-12 | start gathering for flow 0 (from NI 0) to child HMC-8 (to NI 0) at timestep 29
3164825 | HMC-4 | start gathering for flow 2 (from NI 0) to child HMC-0 (to NI 0) at timestep 29
3164825 | HMC-5 | start gathering for flow 12 (from NI 0) to child HMC-9 (to NI 0) at timestep 29
3164825 | HMC-2 | start gathering for flow 11 (from NI 0) to child HMC-3 (to NI 0) at timestep 29
3164825 | HMC-3 | start gathering for flow 15 (from NI 0) to child HMC-7 (to NI 0) at timestep 29
3164825 | HMC-9 | start gathering for flow 8 (from NI 0) to child HMC-13 (to NI 0) at timestep 29
3164825 | HMC-11 | start gathering for flow 10 (from NI 0) to child HMC-15 (to NI 0) at timestep 29
3164825 | HMC-14 | start gathering for flow 5 (from NI 0) to child HMC-10 (to NI 0) at timestep 29
3164825 | HMC-1 | start gathering for flow 7 (from NI 0) to child HMC-2 (to NI 0) at timestep 29
3164825 | HMC-0 | start gathering for flow 3 (from NI 0) to child HMC-1 (to NI 0) at timestep 29
3164825 | HMC-10 | start gathering for flow 9 (from NI 0) to child HMC-6 (to NI 0) at timestep 29
3164825 | HMC-8 | start gathering for flow 1 (from NI 0) to child HMC-4 (to NI 0) at timestep 29
3164825 | HMC-13 | start gathering for flow 4 (from NI 0) to child HMC-12 (to NI 0) at timestep 29
3205310 | HMC-9 | finishes gather for flow 8 (from NI 0) to child HMC-13 (to NI 0) at timestep 29
3205310 | HMC-10 | finishes gather for flow 9 (from NI 0) to child HMC-6 (to NI 0) at timestep 29
3205310 | HMC-11 | finishes gather for flow 10 (from NI 0) to child HMC-15 (to NI 0) at timestep 29
3205310 | HMC-0 | finishes gather for flow 3 (from NI 0) to child HMC-1 (to NI 0) at timestep 29
3205310 | HMC-1 | finishes gather for flow 7 (from NI 0) to child HMC-2 (to NI 0) at timestep 29
3205310 | HMC-8 | finishes gather for flow 1 (from NI 0) to child HMC-4 (to NI 0) at timestep 29
3205310 | HMC-14 | finishes gather for flow 5 (from NI 0) to child HMC-10 (to NI 0) at timestep 29
3205310 | HMC-13 | finishes gather for flow 4 (from NI 0) to child HMC-12 (to NI 0) at timestep 29
3205311 | HMC-7 | finishes gather for flow 14 (from NI 0) to child HMC-11 (to NI 0) at timestep 29
3205311 | HMC-6 | finishes gather for flow 13 (from NI 0) to child HMC-5 (to NI 0) at timestep 29
3205311 | HMC-15 | finishes gather for flow 6 (from NI 0) to child HMC-14 (to NI 0) at timestep 29
3205311 | HMC-12 | finishes gather for flow 0 (from NI 0) to child HMC-8 (to NI 0) at timestep 29
3205311 | HMC-4 | finishes gather for flow 2 (from NI 0) to child HMC-0 (to NI 0) at timestep 29
3205311 | HMC-5 | finishes gather for flow 12 (from NI 0) to child HMC-9 (to NI 0) at timestep 29
3205311 | HMC-2 | finishes gather for flow 11 (from NI 0) to child HMC-3 (to NI 0) at timestep 29
3205311 | HMC-3 | finishes gather for flow 15 (from NI 0) to child HMC-7 (to NI 0) at timestep 29
3206364 | HMC-7 | receives full gather for flow 15 from parent HMC-3
3206364 | HMC-6 | receives full gather for flow 9 from parent HMC-10
3206364 | HMC-15 | receives full gather for flow 10 from parent HMC-11
3206364 | HMC-12 | receives full gather for flow 4 from parent HMC-13
3206364 | HMC-4 | receives full gather for flow 1 from parent HMC-8
3206364 | HMC-5 | receives full gather for flow 13 from parent HMC-6
3206364 | HMC-2 | receives full gather for flow 7 from parent HMC-1
3206364 | HMC-3 | receives full gather for flow 11 from parent HMC-2
3206364 | HMC-9 | receives full gather for flow 12 from parent HMC-5
3206364 | HMC-10 | receives full gather for flow 5 from parent HMC-14
3206364 | HMC-11 | receives full gather for flow 14 from parent HMC-7
3206364 | HMC-1 | receives full gather for flow 3 from parent HMC-0
3206364 | HMC-0 | receives full gather for flow 2 from parent HMC-4
3206364 | HMC-8 | receives full gather for flow 0 from parent HMC-12
3206364 | HMC-14 | receives full gather for flow 6 from parent HMC-15
3206364 | HMC-13 | receives full gather for flow 8 from parent HMC-9
3206365 | HMC-7 | start gathering for flow 15 (from NI 0) to child HMC-11 (to NI 0) at timestep 30
3206365 | HMC-6 | start gathering for flow 9 (from NI 0) to child HMC-5 (to NI 0) at timestep 30
3206365 | HMC-15 | start gathering for flow 10 (from NI 0) to child HMC-14 (to NI 0) at timestep 30
3206365 | HMC-12 | start gathering for flow 4 (from NI 0) to child HMC-8 (to NI 0) at timestep 30
3206365 | HMC-4 | start gathering for flow 1 (from NI 0) to child HMC-0 (to NI 0) at timestep 30
3206365 | HMC-5 | start gathering for flow 13 (from NI 0) to child HMC-9 (to NI 0) at timestep 30
3206365 | HMC-2 | start gathering for flow 7 (from NI 0) to child HMC-3 (to NI 0) at timestep 30
3206365 | HMC-3 | start gathering for flow 11 (from NI 0) to child HMC-7 (to NI 0) at timestep 30
3206365 | HMC-9 | start gathering for flow 12 (from NI 0) to child HMC-13 (to NI 0) at timestep 30
3206365 | HMC-11 | start gathering for flow 14 (from NI 0) to child HMC-15 (to NI 0) at timestep 30
3206365 | HMC-14 | start gathering for flow 6 (from NI 0) to child HMC-10 (to NI 0) at timestep 30
3206365 | HMC-1 | start gathering for flow 3 (from NI 0) to child HMC-2 (to NI 0) at timestep 30
3206365 | HMC-0 | start gathering for flow 2 (from NI 0) to child HMC-1 (to NI 0) at timestep 30
3206365 | HMC-10 | start gathering for flow 5 (from NI 0) to child HMC-6 (to NI 0) at timestep 30
3206365 | HMC-8 | start gathering for flow 0 (from NI 0) to child HMC-4 (to NI 0) at timestep 30
3206365 | HMC-13 | start gathering for flow 8 (from NI 0) to child HMC-12 (to NI 0) at timestep 30
3246850 | HMC-9 | finishes gather for flow 12 (from NI 0) to child HMC-13 (to NI 0) at timestep 30
3246850 | HMC-9 | finishes all-gather (after send-gather-message)
3246850 | HMC-10 | finishes gather for flow 5 (from NI 0) to child HMC-6 (to NI 0) at timestep 30
3246850 | HMC-10 | finishes all-gather (after send-gather-message)
3246850 | HMC-11 | finishes gather for flow 14 (from NI 0) to child HMC-15 (to NI 0) at timestep 30
3246850 | HMC-11 | finishes all-gather (after send-gather-message)
3246850 | HMC-0 | finishes gather for flow 2 (from NI 0) to child HMC-1 (to NI 0) at timestep 30
3246850 | HMC-0 | finishes all-gather (after send-gather-message)
3246850 | HMC-1 | finishes gather for flow 3 (from NI 0) to child HMC-2 (to NI 0) at timestep 30
3246850 | HMC-1 | finishes all-gather (after send-gather-message)
3246850 | HMC-8 | finishes gather for flow 0 (from NI 0) to child HMC-4 (to NI 0) at timestep 30
3246850 | HMC-8 | finishes all-gather (after send-gather-message)
3246850 | HMC-14 | finishes gather for flow 6 (from NI 0) to child HMC-10 (to NI 0) at timestep 30
3246850 | HMC-14 | finishes all-gather (after send-gather-message)
3246850 | HMC-13 | finishes gather for flow 8 (from NI 0) to child HMC-12 (to NI 0) at timestep 30
3246850 | HMC-13 | finishes all-gather (after send-gather-message)
3246851 | HMC-7 | finishes gather for flow 15 (from NI 0) to child HMC-11 (to NI 0) at timestep 30
3246851 | HMC-7 | finishes all-gather (after send-gather-message)
3246851 | HMC-6 | finishes gather for flow 9 (from NI 0) to child HMC-5 (to NI 0) at timestep 30
3246851 | HMC-6 | finishes all-gather (after send-gather-message)
3246851 | HMC-15 | finishes gather for flow 10 (from NI 0) to child HMC-14 (to NI 0) at timestep 30
3246851 | HMC-15 | finishes all-gather (after send-gather-message)
3246851 | HMC-12 | finishes gather for flow 4 (from NI 0) to child HMC-8 (to NI 0) at timestep 30
3246851 | HMC-12 | finishes all-gather (after send-gather-message)
3246851 | HMC-4 | finishes gather for flow 1 (from NI 0) to child HMC-0 (to NI 0) at timestep 30
3246851 | HMC-4 | finishes all-gather (after send-gather-message)
3246851 | HMC-5 | finishes gather for flow 13 (from NI 0) to child HMC-9 (to NI 0) at timestep 30
3246851 | HMC-5 | finishes all-gather (after send-gather-message)
3246851 | HMC-2 | finishes gather for flow 7 (from NI 0) to child HMC-3 (to NI 0) at timestep 30
3246851 | HMC-2 | finishes all-gather (after send-gather-message)
3246851 | HMC-3 | finishes gather for flow 11 (from NI 0) to child HMC-7 (to NI 0) at timestep 30
3246851 | HMC-3 | finishes all-gather (after send-gather-message)
3247904 | HMC-7 | receives full gather for flow 11 from parent HMC-3
3247904 | HMC-7 | finishes all-gather (after recieving all-gather)
3247904 | HMC-6 | receives full gather for flow 5 from parent HMC-10
3247904 | HMC-6 | finishes all-gather (after recieving all-gather)
3247904 | HMC-15 | receives full gather for flow 14 from parent HMC-11
3247904 | HMC-15 | finishes all-gather (after recieving all-gather)
3247904 | HMC-12 | receives full gather for flow 8 from parent HMC-13
3247904 | HMC-12 | finishes all-gather (after recieving all-gather)
3247904 | HMC-4 | receives full gather for flow 0 from parent HMC-8
3247904 | HMC-4 | finishes all-gather (after recieving all-gather)
3247904 | HMC-5 | receives full gather for flow 9 from parent HMC-6
3247904 | HMC-5 | finishes all-gather (after recieving all-gather)
3247904 | HMC-2 | receives full gather for flow 3 from parent HMC-1
3247904 | HMC-2 | finishes all-gather (after recieving all-gather)
3247904 | HMC-3 | receives full gather for flow 7 from parent HMC-2
3247904 | HMC-3 | finishes all-gather (after recieving all-gather)
3247904 | HMC-9 | receives full gather for flow 13 from parent HMC-5
3247904 | HMC-9 | finishes all-gather (after recieving all-gather)
3247904 | HMC-10 | receives full gather for flow 6 from parent HMC-14
3247904 | HMC-10 | finishes all-gather (after recieving all-gather)
3247904 | HMC-11 | receives full gather for flow 15 from parent HMC-7
3247904 | HMC-11 | finishes all-gather (after recieving all-gather)
3247904 | HMC-1 | receives full gather for flow 2 from parent HMC-0
3247904 | HMC-1 | finishes all-gather (after recieving all-gather)
3247904 | HMC-0 | receives full gather for flow 1 from parent HMC-4
3247904 | HMC-0 | finishes all-gather (after recieving all-gather)
3247904 | HMC-8 | receives full gather for flow 4 from parent HMC-12
3247904 | HMC-8 | finishes all-gather (after recieving all-gather)
3247904 | HMC-14 | receives full gather for flow 10 from parent HMC-15
3247904 | HMC-14 | finishes all-gather (after recieving all-gather)
3247904 | HMC-13 | receives full gather for flow 12 from parent HMC-9
3247904 | HMC-13 | finishes all-gather (after recieving all-gather)

======== Simulation Summary ========
Training epoch runtime: 3248053 cycles
 - computation: 1928487 cycles (59.37%)
 - allreduce: 1319566 cycles (40.63%)
     - overlapped computation: 73200 cycles (2.25%)
     - pure communication: 1246366 cycles (38.37%)
Total number of messages: 1168320

