====================================================
******************* SCALE SIM **********************
====================================================
Array Size:    32 x 32
SRAM IFMAP:    524288
SRAM Filter:   524288
SRAM OFMAP:    262144
CSV file path: /home/farabi/study/research/multitree-sim/src/SCALE-Sim/topologies/mlperf/Transformer.csv
Dataflow:      os
====================================================


Model loading ...
Warn: incomplete model layer description: line 1
 -- Transformer,

Model loading finished

NN model size: 77418328 parameters

Start a training epoch ...

Feed-Forward ...

Commencing run for Embedding
Average utilization : 99.81473141551632 %
Cycles for compute  : 539680 cycles

Commencing run for Attn_Xmap
Average utilization : 2.987263033175356 %
Cycles for compute  : 1056 cycles

Commencing run for Attn_Kmap
Average utilization : 2.987263033175356 %
Cycles for compute  : 1056 cycles

Commencing run for Attn_Qmap
Average utilization : 2.987263033175356 %
Cycles for compute  : 1056 cycles

Commencing run for Attn_QxK'
Average utilization : 1.3727678571428572 %
Cycles for compute  : 160 cycles

Commencing run for Attn_SFMXxV
Average utilization : 2.2110849056603774 %
Cycles for compute  : 160 cycles

Commencing run for Attn_Concat_map
Average utilization : 3.1073285297336737 %
Cycles for compute  : 8224 cycles

Commencing run for Attn_Xmap
Average utilization : 2.987263033175356 %
Cycles for compute  : 1056 cycles

Commencing run for Attn_Kmap
Average utilization : 2.987263033175356 %
Cycles for compute  : 1056 cycles

Commencing run for Attn_Qmap
Average utilization : 2.987263033175356 %
Cycles for compute  : 1056 cycles

Commencing run for Attn_QxK'
Average utilization : 1.3727678571428572 %
Cycles for compute  : 160 cycles

Commencing run for Attn_SFMXxV
Average utilization : 2.2110849056603774 %
Cycles for compute  : 160 cycles

Commencing run for Attn_Concat_map
Average utilization : 3.1073285297336737 %
Cycles for compute  : 8224 cycles

Commencing run for Attn_Xmap
Average utilization : 2.987263033175356 %
Cycles for compute  : 1056 cycles

Commencing run for Attn_Kmap
Average utilization : 2.987263033175356 %
Cycles for compute  : 1056 cycles

Commencing run for Attn_Qmap
Average utilization : 2.987263033175356 %
Cycles for compute  : 1056 cycles

Commencing run for Attn_QxK'
Average utilization : 1.3727678571428572 %
Cycles for compute  : 160 cycles

Commencing run for Attn_SFMXxV
Average utilization : 2.2110849056603774 %
Cycles for compute  : 160 cycles

Commencing run for Attn_Concat_map
Average utilization : 3.1073285297336737 %
Cycles for compute  : 8224 cycles

Commencing run for Attn_Xmap
Average utilization : 2.987263033175356 %
Cycles for compute  : 1056 cycles

Commencing run for Attn_Kmap
Average utilization : 2.987263033175356 %
Cycles for compute  : 1056 cycles

Commencing run for Attn_Qmap
Average utilization : 2.987263033175356 %
Cycles for compute  : 1056 cycles

Commencing run for Attn_QxK'
Average utilization : 1.3727678571428572 %
Cycles for compute  : 160 cycles

Commencing run for Attn_SFMXxV
Average utilization : 2.2110849056603774 %
Cycles for compute  : 160 cycles

Commencing run for Attn_Concat_map
Average utilization : 3.1073285297336737 %
Cycles for compute  : 8224 cycles

Commencing run for Attn_Xmap
Average utilization : 2.987263033175356 %
Cycles for compute  : 1056 cycles

Commencing run for Attn_Kmap
Average utilization : 2.987263033175356 %
Cycles for compute  : 1056 cycles

Commencing run for Attn_Qmap
Average utilization : 2.987263033175356 %
Cycles for compute  : 1056 cycles

Commencing run for Attn_QxK'
Average utilization : 1.3727678571428572 %
Cycles for compute  : 160 cycles

Commencing run for Attn_SFMXxV
Average utilization : 2.2110849056603774 %
Cycles for compute  : 160 cycles

Commencing run for Attn_Concat_map
Average utilization : 3.1073285297336737 %
Cycles for compute  : 8224 cycles

Commencing run for Attn_Xmap
Average utilization : 2.987263033175356 %
Cycles for compute  : 1056 cycles

Commencing run for Attn_Kmap
Average utilization : 2.987263033175356 %
Cycles for compute  : 1056 cycles

Commencing run for Attn_Qmap
Average utilization : 2.987263033175356 %
Cycles for compute  : 1056 cycles

Commencing run for Attn_QxK'
Average utilization : 1.3727678571428572 %
Cycles for compute  : 160 cycles

Commencing run for Attn_SFMXxV
Average utilization : 2.2110849056603774 %
Cycles for compute  : 160 cycles

Commencing run for Attn_Concat_map
Average utilization : 3.1073285297336737 %
Cycles for compute  : 8224 cycles

Commencing run for Attn_Xmap
Average utilization : 2.987263033175356 %
Cycles for compute  : 1056 cycles

Commencing run for Attn_Kmap
Average utilization : 2.987263033175356 %
Cycles for compute  : 1056 cycles

Commencing run for Attn_Qmap
Average utilization : 2.987263033175356 %
Cycles for compute  : 1056 cycles

Commencing run for Attn_QxK'
Average utilization : 1.3727678571428572 %
Cycles for compute  : 160 cycles

Commencing run for Attn_SFMXxV
Average utilization : 2.2110849056603774 %
Cycles for compute  : 160 cycles

Commencing run for Attn_Concat_map
Average utilization : 3.1073285297336737 %
Cycles for compute  : 8224 cycles

Commencing run for Attn_Xmap
Average utilization : 2.987263033175356 %
Cycles for compute  : 1056 cycles

Commencing run for Attn_Kmap
Average utilization : 2.987263033175356 %
Cycles for compute  : 1056 cycles

Commencing run for Attn_Qmap
Average utilization : 2.987263033175356 %
Cycles for compute  : 1056 cycles

Commencing run for Attn_QxK'
Average utilization : 1.3727678571428572 %
Cycles for compute  : 160 cycles

Commencing run for Attn_SFMXxV
Average utilization : 2.2110849056603774 %
Cycles for compute  : 160 cycles

Commencing run for Attn_Concat_map
Average utilization : 3.1073285297336737 %
Cycles for compute  : 8224 cycles

Commencing run for FFN1
Average utilization : 3.120569605780664 %
Cycles for compute  : 32800 cycles

Commencing run for FFN2
Average utilization : 3.120569605780664 %
Cycles for compute  : 32800 cycles

Commencing run for Attn_Xmap
Average utilization : 2.987263033175356 %
Cycles for compute  : 1056 cycles

Commencing run for Attn_Kmap
Average utilization : 2.987263033175356 %
Cycles for compute  : 1056 cycles

Commencing run for Attn_Qmap
Average utilization : 2.987263033175356 %
Cycles for compute  : 1056 cycles

Commencing run for Attn_QxK'
Average utilization : 1.3727678571428572 %
Cycles for compute  : 160 cycles

Commencing run for Attn_SFMXxV
Average utilization : 2.2110849056603774 %
Cycles for compute  : 160 cycles

Commencing run for Attn_Concat_map
Average utilization : 3.1073285297336737 %
Cycles for compute  : 8224 cycles

Commencing run for Attn_Xmap
Average utilization : 2.987263033175356 %
Cycles for compute  : 1056 cycles

Commencing run for Attn_Kmap
Average utilization : 2.987263033175356 %
Cycles for compute  : 1056 cycles

Commencing run for Attn_Qmap
Average utilization : 2.987263033175356 %
Cycles for compute  : 1056 cycles

Commencing run for Attn_QxK'
Average utilization : 1.3727678571428572 %
Cycles for compute  : 160 cycles

Commencing run for Attn_SFMXxV
Average utilization : 2.2110849056603774 %
Cycles for compute  : 160 cycles

Commencing run for Attn_Concat_map
Average utilization : 3.1073285297336737 %
Cycles for compute  : 8224 cycles

Commencing run for Attn_Xmap
Average utilization : 2.987263033175356 %
Cycles for compute  : 1056 cycles

Commencing run for Attn_Kmap
Average utilization : 2.987263033175356 %
Cycles for compute  : 1056 cycles

Commencing run for Attn_Qmap
Average utilization : 2.987263033175356 %
Cycles for compute  : 1056 cycles

Commencing run for Attn_QxK'
Average utilization : 1.3727678571428572 %
Cycles for compute  : 160 cycles

Commencing run for Attn_SFMXxV
Average utilization : 2.2110849056603774 %
Cycles for compute  : 160 cycles

Commencing run for Attn_Concat_map
Average utilization : 3.1073285297336737 %
Cycles for compute  : 8224 cycles

Commencing run for Attn_Xmap
Average utilization : 2.987263033175356 %
Cycles for compute  : 1056 cycles

Commencing run for Attn_Kmap
Average utilization : 2.987263033175356 %
Cycles for compute  : 1056 cycles

Commencing run for Attn_Qmap
Average utilization : 2.987263033175356 %
Cycles for compute  : 1056 cycles

Commencing run for Attn_QxK'
Average utilization : 1.3727678571428572 %
Cycles for compute  : 160 cycles

Commencing run for Attn_SFMXxV
Average utilization : 2.2110849056603774 %
Cycles for compute  : 160 cycles

Commencing run for Attn_Concat_map
Average utilization : 3.1073285297336737 %
Cycles for compute  : 8224 cycles

Commencing run for Attn_Xmap
Average utilization : 2.987263033175356 %
Cycles for compute  : 1056 cycles

Commencing run for Attn_Kmap
Average utilization : 2.987263033175356 %
Cycles for compute  : 1056 cycles

Commencing run for Attn_Qmap
Average utilization : 2.987263033175356 %
Cycles for compute  : 1056 cycles

Commencing run for Attn_QxK'
Average utilization : 1.3727678571428572 %
Cycles for compute  : 160 cycles

Commencing run for Attn_SFMXxV
Average utilization : 2.2110849056603774 %
Cycles for compute  : 160 cycles

Commencing run for Attn_Concat_map
Average utilization : 3.1073285297336737 %
Cycles for compute  : 8224 cycles

Commencing run for Attn_Xmap
Average utilization : 2.987263033175356 %
Cycles for compute  : 1056 cycles

Commencing run for Attn_Kmap
Average utilization : 2.987263033175356 %
Cycles for compute  : 1056 cycles

Commencing run for Attn_Qmap
Average utilization : 2.987263033175356 %
Cycles for compute  : 1056 cycles

Commencing run for Attn_QxK'
Average utilization : 1.3727678571428572 %
Cycles for compute  : 160 cycles

Commencing run for Attn_SFMXxV
Average utilization : 2.2110849056603774 %
Cycles for compute  : 160 cycles

Commencing run for Attn_Concat_map
Average utilization : 3.1073285297336737 %
Cycles for compute  : 8224 cycles

Commencing run for Attn_Xmap
Average utilization : 2.987263033175356 %
Cycles for compute  : 1056 cycles

Commencing run for Attn_Kmap
Average utilization : 2.987263033175356 %
Cycles for compute  : 1056 cycles

Commencing run for Attn_Qmap
Average utilization : 2.987263033175356 %
Cycles for compute  : 1056 cycles

Commencing run for Attn_QxK'
Average utilization : 1.3727678571428572 %
Cycles for compute  : 160 cycles

Commencing run for Attn_SFMXxV
Average utilization : 2.2110849056603774 %
Cycles for compute  : 160 cycles

Commencing run for Attn_Concat_map
Average utilization : 3.1073285297336737 %
Cycles for compute  : 8224 cycles

Commencing run for Attn_Xmap
Average utilization : 2.987263033175356 %
Cycles for compute  : 1056 cycles

Commencing run for Attn_Kmap
Average utilization : 2.987263033175356 %
Cycles for compute  : 1056 cycles

Commencing run for Attn_Qmap
Average utilization : 2.987263033175356 %
Cycles for compute  : 1056 cycles

Commencing run for Attn_QxK'
Average utilization : 1.3727678571428572 %
Cycles for compute  : 160 cycles

Commencing run for Attn_SFMXxV
Average utilization : 2.2110849056603774 %
Cycles for compute  : 160 cycles

Commencing run for Attn_Concat_map
Average utilization : 3.1073285297336737 %
Cycles for compute  : 8224 cycles

Commencing run for FFN1
Average utilization : 3.120569605780664 %
Cycles for compute  : 32800 cycles

Commencing run for FFN2
Average utilization : 3.120569605780664 %
Cycles for compute  : 32800 cycles

Commencing run for Attn_Xmap
Average utilization : 2.987263033175356 %
Cycles for compute  : 1056 cycles

Commencing run for Attn_Kmap
Average utilization : 2.987263033175356 %
Cycles for compute  : 1056 cycles

Commencing run for Attn_Qmap
Average utilization : 2.987263033175356 %
Cycles for compute  : 1056 cycles

Commencing run for Attn_QxK'
Average utilization : 1.3727678571428572 %
Cycles for compute  : 160 cycles

Commencing run for Attn_SFMXxV
Average utilization : 2.2110849056603774 %
Cycles for compute  : 160 cycles

Commencing run for Attn_Concat_map
Average utilization : 3.1073285297336737 %
Cycles for compute  : 8224 cycles

Commencing run for Attn_Xmap
Average utilization : 2.987263033175356 %
Cycles for compute  : 1056 cycles

Commencing run for Attn_Kmap
Average utilization : 2.987263033175356 %
Cycles for compute  : 1056 cycles

Commencing run for Attn_Qmap
Average utilization : 2.987263033175356 %
Cycles for compute  : 1056 cycles

Commencing run for Attn_QxK'
Average utilization : 1.3727678571428572 %
Cycles for compute  : 160 cycles

Commencing run for Attn_SFMXxV
Average utilization : 2.2110849056603774 %
Cycles for compute  : 160 cycles

Commencing run for Attn_Concat_map
Average utilization : 3.1073285297336737 %
Cycles for compute  : 8224 cycles

Commencing run for Attn_Xmap
Average utilization : 2.987263033175356 %
Cycles for compute  : 1056 cycles

Commencing run for Attn_Kmap
Average utilization : 2.987263033175356 %
Cycles for compute  : 1056 cycles

Commencing run for Attn_Qmap
Average utilization : 2.987263033175356 %
Cycles for compute  : 1056 cycles

Commencing run for Attn_QxK'
Average utilization : 1.3727678571428572 %
Cycles for compute  : 160 cycles

Commencing run for Attn_SFMXxV
Average utilization : 2.2110849056603774 %
Cycles for compute  : 160 cycles

Commencing run for Attn_Concat_map
Average utilization : 3.1073285297336737 %
Cycles for compute  : 8224 cycles

Commencing run for Attn_Xmap
Average utilization : 2.987263033175356 %
Cycles for compute  : 1056 cycles

Commencing run for Attn_Kmap
Average utilization : 2.987263033175356 %
Cycles for compute  : 1056 cycles

Commencing run for Attn_Qmap
Average utilization : 2.987263033175356 %
Cycles for compute  : 1056 cycles

Commencing run for Attn_QxK'
Average utilization : 1.3727678571428572 %
Cycles for compute  : 160 cycles

Commencing run for Attn_SFMXxV
Average utilization : 2.2110849056603774 %
Cycles for compute  : 160 cycles

Commencing run for Attn_Concat_map
Average utilization : 3.1073285297336737 %
Cycles for compute  : 8224 cycles

Commencing run for Attn_Xmap
Average utilization : 2.987263033175356 %
Cycles for compute  : 1056 cycles

Commencing run for Attn_Kmap
Average utilization : 2.987263033175356 %
Cycles for compute  : 1056 cycles

Commencing run for Attn_Qmap
Average utilization : 2.987263033175356 %
Cycles for compute  : 1056 cycles

Commencing run for Attn_QxK'
Average utilization : 1.3727678571428572 %
Cycles for compute  : 160 cycles

Commencing run for Attn_SFMXxV
Average utilization : 2.2110849056603774 %
Cycles for compute  : 160 cycles

Commencing run for Attn_Concat_map
Average utilization : 3.1073285297336737 %
Cycles for compute  : 8224 cycles

Commencing run for Attn_Xmap
Average utilization : 2.987263033175356 %
Cycles for compute  : 1056 cycles

Commencing run for Attn_Kmap
Average utilization : 2.987263033175356 %
Cycles for compute  : 1056 cycles

Commencing run for Attn_Qmap
Average utilization : 2.987263033175356 %
Cycles for compute  : 1056 cycles

Commencing run for Attn_QxK'
Average utilization : 1.3727678571428572 %
Cycles for compute  : 160 cycles

Commencing run for Attn_SFMXxV
Average utilization : 2.2110849056603774 %
Cycles for compute  : 160 cycles

Commencing run for Attn_Concat_map
Average utilization : 3.1073285297336737 %
Cycles for compute  : 8224 cycles

Commencing run for Attn_Xmap
Average utilization : 2.987263033175356 %
Cycles for compute  : 1056 cycles

Commencing run for Attn_Kmap
Average utilization : 2.987263033175356 %
Cycles for compute  : 1056 cycles

Commencing run for Attn_Qmap
Average utilization : 2.987263033175356 %
Cycles for compute  : 1056 cycles

Commencing run for Attn_QxK'
Average utilization : 1.3727678571428572 %
Cycles for compute  : 160 cycles

Commencing run for Attn_SFMXxV
Average utilization : 2.2110849056603774 %
Cycles for compute  : 160 cycles

Commencing run for Attn_Concat_map
Average utilization : 3.1073285297336737 %
Cycles for compute  : 8224 cycles

Commencing run for Attn_Xmap
Average utilization : 2.987263033175356 %
Cycles for compute  : 1056 cycles

Commencing run for Attn_Kmap
Average utilization : 2.987263033175356 %
Cycles for compute  : 1056 cycles

Commencing run for Attn_Qmap
Average utilization : 2.987263033175356 %
Cycles for compute  : 1056 cycles

Commencing run for Attn_QxK'
Average utilization : 1.3727678571428572 %
Cycles for compute  : 160 cycles

Commencing run for Attn_SFMXxV
Average utilization : 2.2110849056603774 %
Cycles for compute  : 160 cycles

Commencing run for Attn_Concat_map
Average utilization : 3.1073285297336737 %
Cycles for compute  : 8224 cycles

Commencing run for FFN1
Average utilization : 3.120569605780664 %
Cycles for compute  : 32800 cycles

Commencing run for FFN2
Average utilization : 3.120569605780664 %
Cycles for compute  : 32800 cycles

Commencing run for Attn_Xmap
Average utilization : 2.987263033175356 %
Cycles for compute  : 1056 cycles

Commencing run for Attn_Kmap
Average utilization : 2.987263033175356 %
Cycles for compute  : 1056 cycles

Commencing run for Attn_Qmap
Average utilization : 2.987263033175356 %
Cycles for compute  : 1056 cycles

Commencing run for Attn_QxK'
Average utilization : 1.3727678571428572 %
Cycles for compute  : 160 cycles

Commencing run for Attn_SFMXxV
Average utilization : 2.2110849056603774 %
Cycles for compute  : 160 cycles

Commencing run for Attn_Concat_map
Average utilization : 3.1073285297336737 %
Cycles for compute  : 8224 cycles

Commencing run for Attn_Xmap
Average utilization : 2.987263033175356 %
Cycles for compute  : 1056 cycles

Commencing run for Attn_Kmap
Average utilization : 2.987263033175356 %
Cycles for compute  : 1056 cycles

Commencing run for Attn_Qmap
Average utilization : 2.987263033175356 %
Cycles for compute  : 1056 cycles

Commencing run for Attn_QxK'
Average utilization : 1.3727678571428572 %
Cycles for compute  : 160 cycles

Commencing run for Attn_SFMXxV
Average utilization : 2.2110849056603774 %
Cycles for compute  : 160 cycles

Commencing run for Attn_Concat_map
Average utilization : 3.1073285297336737 %
Cycles for compute  : 8224 cycles

Commencing run for Attn_Xmap
Average utilization : 2.987263033175356 %
Cycles for compute  : 1056 cycles

Commencing run for Attn_Kmap
Average utilization : 2.987263033175356 %
Cycles for compute  : 1056 cycles

Commencing run for Attn_Qmap
Average utilization : 2.987263033175356 %
Cycles for compute  : 1056 cycles

Commencing run for Attn_QxK'
Average utilization : 1.3727678571428572 %
Cycles for compute  : 160 cycles

Commencing run for Attn_SFMXxV
Average utilization : 2.2110849056603774 %
Cycles for compute  : 160 cycles

Commencing run for Attn_Concat_map
Average utilization : 3.1073285297336737 %
Cycles for compute  : 8224 cycles

Commencing run for Attn_Xmap
Average utilization : 2.987263033175356 %
Cycles for compute  : 1056 cycles

Commencing run for Attn_Kmap
Average utilization : 2.987263033175356 %
Cycles for compute  : 1056 cycles

Commencing run for Attn_Qmap
Average utilization : 2.987263033175356 %
Cycles for compute  : 1056 cycles

Commencing run for Attn_QxK'
Average utilization : 1.3727678571428572 %
Cycles for compute  : 160 cycles

Commencing run for Attn_SFMXxV
Average utilization : 2.2110849056603774 %
Cycles for compute  : 160 cycles

Commencing run for Attn_Concat_map
Average utilization : 3.1073285297336737 %
Cycles for compute  : 8224 cycles

Commencing run for Attn_Xmap
Average utilization : 2.987263033175356 %
Cycles for compute  : 1056 cycles

Commencing run for Attn_Kmap
Average utilization : 2.987263033175356 %
Cycles for compute  : 1056 cycles

Commencing run for Attn_Qmap
Average utilization : 2.987263033175356 %
Cycles for compute  : 1056 cycles

Commencing run for Attn_QxK'
Average utilization : 1.3727678571428572 %
Cycles for compute  : 160 cycles

Commencing run for Attn_SFMXxV
Average utilization : 2.2110849056603774 %
Cycles for compute  : 160 cycles

Commencing run for Attn_Concat_map
Average utilization : 3.1073285297336737 %
Cycles for compute  : 8224 cycles

Commencing run for Attn_Xmap
Average utilization : 2.987263033175356 %
Cycles for compute  : 1056 cycles

Commencing run for Attn_Kmap
Average utilization : 2.987263033175356 %
Cycles for compute  : 1056 cycles

Commencing run for Attn_Qmap
Average utilization : 2.987263033175356 %
Cycles for compute  : 1056 cycles

Commencing run for Attn_QxK'
Average utilization : 1.3727678571428572 %
Cycles for compute  : 160 cycles

Commencing run for Attn_SFMXxV
Average utilization : 2.2110849056603774 %
Cycles for compute  : 160 cycles

Commencing run for Attn_Concat_map
Average utilization : 3.1073285297336737 %
Cycles for compute  : 8224 cycles

Commencing run for Attn_Xmap
Average utilization : 2.987263033175356 %
Cycles for compute  : 1056 cycles

Commencing run for Attn_Kmap
Average utilization : 2.987263033175356 %
Cycles for compute  : 1056 cycles

Commencing run for Attn_Qmap
Average utilization : 2.987263033175356 %
Cycles for compute  : 1056 cycles

Commencing run for Attn_QxK'
Average utilization : 1.3727678571428572 %
Cycles for compute  : 160 cycles

Commencing run for Attn_SFMXxV
Average utilization : 2.2110849056603774 %
Cycles for compute  : 160 cycles

Commencing run for Attn_Concat_map
Average utilization : 3.1073285297336737 %
Cycles for compute  : 8224 cycles

Commencing run for Attn_Xmap
Average utilization : 2.987263033175356 %
Cycles for compute  : 1056 cycles

Commencing run for Attn_Kmap
Average utilization : 2.987263033175356 %
Cycles for compute  : 1056 cycles

Commencing run for Attn_Qmap
Average utilization : 2.987263033175356 %
Cycles for compute  : 1056 cycles

Commencing run for Attn_QxK'
Average utilization : 1.3727678571428572 %
Cycles for compute  : 160 cycles

Commencing run for Attn_SFMXxV
Average utilization : 2.2110849056603774 %
Cycles for compute  : 160 cycles

Commencing run for Attn_Concat_map
Average utilization : 3.1073285297336737 %
Cycles for compute  : 8224 cycles

Commencing run for FFN1
Average utilization : 3.120569605780664 %
Cycles for compute  : 32800 cycles

Commencing run for FFN2
Average utilization : 3.120569605780664 %
Cycles for compute  : 32800 cycles

Commencing run for Attn_Xmap
Average utilization : 2.987263033175356 %
Cycles for compute  : 1056 cycles

Commencing run for Attn_Kmap
Average utilization : 2.987263033175356 %
Cycles for compute  : 1056 cycles

Commencing run for Attn_Qmap
Average utilization : 2.987263033175356 %
Cycles for compute  : 1056 cycles

Commencing run for Attn_QxK'
Average utilization : 1.3727678571428572 %
Cycles for compute  : 160 cycles

Commencing run for Attn_SFMXxV
Average utilization : 2.2110849056603774 %
Cycles for compute  : 160 cycles

Commencing run for Attn_Concat_map
Average utilization : 3.1073285297336737 %
Cycles for compute  : 8224 cycles

Commencing run for Attn_Xmap
Average utilization : 2.987263033175356 %
Cycles for compute  : 1056 cycles

Commencing run for Attn_Kmap
Average utilization : 2.987263033175356 %
Cycles for compute  : 1056 cycles

Commencing run for Attn_Qmap
Average utilization : 2.987263033175356 %
Cycles for compute  : 1056 cycles

Commencing run for Attn_QxK'
Average utilization : 1.3727678571428572 %
Cycles for compute  : 160 cycles

Commencing run for Attn_SFMXxV
Average utilization : 2.2110849056603774 %
Cycles for compute  : 160 cycles

Commencing run for Attn_Concat_map
Average utilization : 3.1073285297336737 %
Cycles for compute  : 8224 cycles

Commencing run for Attn_Xmap
Average utilization : 2.987263033175356 %
Cycles for compute  : 1056 cycles

Commencing run for Attn_Kmap
Average utilization : 2.987263033175356 %
Cycles for compute  : 1056 cycles

Commencing run for Attn_Qmap
Average utilization : 2.987263033175356 %
Cycles for compute  : 1056 cycles

Commencing run for Attn_QxK'
Average utilization : 1.3727678571428572 %
Cycles for compute  : 160 cycles

Commencing run for Attn_SFMXxV
Average utilization : 2.2110849056603774 %
Cycles for compute  : 160 cycles

Commencing run for Attn_Concat_map
Average utilization : 3.1073285297336737 %
Cycles for compute  : 8224 cycles

Commencing run for Attn_Xmap
Average utilization : 2.987263033175356 %
Cycles for compute  : 1056 cycles

Commencing run for Attn_Kmap
Average utilization : 2.987263033175356 %
Cycles for compute  : 1056 cycles

Commencing run for Attn_Qmap
Average utilization : 2.987263033175356 %
Cycles for compute  : 1056 cycles

Commencing run for Attn_QxK'
Average utilization : 1.3727678571428572 %
Cycles for compute  : 160 cycles

Commencing run for Attn_SFMXxV
Average utilization : 2.2110849056603774 %
Cycles for compute  : 160 cycles

Commencing run for Attn_Concat_map
Average utilization : 3.1073285297336737 %
Cycles for compute  : 8224 cycles

Commencing run for Attn_Xmap
Average utilization : 2.987263033175356 %
Cycles for compute  : 1056 cycles

Commencing run for Attn_Kmap
Average utilization : 2.987263033175356 %
Cycles for compute  : 1056 cycles

Commencing run for Attn_Qmap
Average utilization : 2.987263033175356 %
Cycles for compute  : 1056 cycles

Commencing run for Attn_QxK'
Average utilization : 1.3727678571428572 %
Cycles for compute  : 160 cycles

Commencing run for Attn_SFMXxV
Average utilization : 2.2110849056603774 %
Cycles for compute  : 160 cycles

Commencing run for Attn_Concat_map
Average utilization : 3.1073285297336737 %
Cycles for compute  : 8224 cycles

Commencing run for Attn_Xmap
Average utilization : 2.987263033175356 %
Cycles for compute  : 1056 cycles

Commencing run for Attn_Kmap
Average utilization : 2.987263033175356 %
Cycles for compute  : 1056 cycles

Commencing run for Attn_Qmap
Average utilization : 2.987263033175356 %
Cycles for compute  : 1056 cycles

Commencing run for Attn_QxK'
Average utilization : 1.3727678571428572 %
Cycles for compute  : 160 cycles

Commencing run for Attn_SFMXxV
Average utilization : 2.2110849056603774 %
Cycles for compute  : 160 cycles

Commencing run for Attn_Concat_map
Average utilization : 3.1073285297336737 %
Cycles for compute  : 8224 cycles

Commencing run for Attn_Xmap
Average utilization : 2.987263033175356 %
Cycles for compute  : 1056 cycles

Commencing run for Attn_Kmap
Average utilization : 2.987263033175356 %
Cycles for compute  : 1056 cycles

Commencing run for Attn_Qmap
Average utilization : 2.987263033175356 %
Cycles for compute  : 1056 cycles

Commencing run for Attn_QxK'
Average utilization : 1.3727678571428572 %
Cycles for compute  : 160 cycles

Commencing run for Attn_SFMXxV
Average utilization : 2.2110849056603774 %
Cycles for compute  : 160 cycles

Commencing run for Attn_Concat_map
Average utilization : 3.1073285297336737 %
Cycles for compute  : 8224 cycles

Commencing run for Attn_Xmap
Average utilization : 2.987263033175356 %
Cycles for compute  : 1056 cycles

Commencing run for Attn_Kmap
Average utilization : 2.987263033175356 %
Cycles for compute  : 1056 cycles

Commencing run for Attn_Qmap
Average utilization : 2.987263033175356 %
Cycles for compute  : 1056 cycles

Commencing run for Attn_QxK'
Average utilization : 1.3727678571428572 %
Cycles for compute  : 160 cycles

Commencing run for Attn_SFMXxV
Average utilization : 2.2110849056603774 %
Cycles for compute  : 160 cycles

Commencing run for Attn_Concat_map
Average utilization : 3.1073285297336737 %
Cycles for compute  : 8224 cycles

Commencing run for FFN1
Average utilization : 3.120569605780664 %
Cycles for compute  : 32800 cycles

Commencing run for FFN2
Average utilization : 3.120569605780664 %
Cycles for compute  : 32800 cycles

Commencing run for Attn_Xmap
Average utilization : 2.987263033175356 %
Cycles for compute  : 1056 cycles

Commencing run for Attn_Kmap
Average utilization : 2.987263033175356 %
Cycles for compute  : 1056 cycles

Commencing run for Attn_Qmap
Average utilization : 2.987263033175356 %
Cycles for compute  : 1056 cycles

Commencing run for Attn_QxK'
Average utilization : 1.3727678571428572 %
Cycles for compute  : 160 cycles

Commencing run for Attn_SFMXxV
Average utilization : 2.2110849056603774 %
Cycles for compute  : 160 cycles

Commencing run for Attn_Concat_map
Average utilization : 3.1073285297336737 %
Cycles for compute  : 8224 cycles

Commencing run for Attn_Xmap
Average utilization : 2.987263033175356 %
Cycles for compute  : 1056 cycles

Commencing run for Attn_Kmap
Average utilization : 2.987263033175356 %
Cycles for compute  : 1056 cycles

Commencing run for Attn_Qmap
Average utilization : 2.987263033175356 %
Cycles for compute  : 1056 cycles

Commencing run for Attn_QxK'
Average utilization : 1.3727678571428572 %
Cycles for compute  : 160 cycles

Commencing run for Attn_SFMXxV
Average utilization : 2.2110849056603774 %
Cycles for compute  : 160 cycles

Commencing run for Attn_Concat_map
Average utilization : 3.1073285297336737 %
Cycles for compute  : 8224 cycles

Commencing run for Attn_Xmap
Average utilization : 2.987263033175356 %
Cycles for compute  : 1056 cycles

Commencing run for Attn_Kmap
Average utilization : 2.987263033175356 %
Cycles for compute  : 1056 cycles

Commencing run for Attn_Qmap
Average utilization : 2.987263033175356 %
Cycles for compute  : 1056 cycles

Commencing run for Attn_QxK'
Average utilization : 1.3727678571428572 %
Cycles for compute  : 160 cycles

Commencing run for Attn_SFMXxV
Average utilization : 2.2110849056603774 %
Cycles for compute  : 160 cycles

Commencing run for Attn_Concat_map
Average utilization : 3.1073285297336737 %
Cycles for compute  : 8224 cycles

Commencing run for Attn_Xmap
Average utilization : 2.987263033175356 %
Cycles for compute  : 1056 cycles

Commencing run for Attn_Kmap
Average utilization : 2.987263033175356 %
Cycles for compute  : 1056 cycles

Commencing run for Attn_Qmap
Average utilization : 2.987263033175356 %
Cycles for compute  : 1056 cycles

Commencing run for Attn_QxK'
Average utilization : 1.3727678571428572 %
Cycles for compute  : 160 cycles

Commencing run for Attn_SFMXxV
Average utilization : 2.2110849056603774 %
Cycles for compute  : 160 cycles

Commencing run for Attn_Concat_map
Average utilization : 3.1073285297336737 %
Cycles for compute  : 8224 cycles

Commencing run for Attn_Xmap
Average utilization : 2.987263033175356 %
Cycles for compute  : 1056 cycles

Commencing run for Attn_Kmap
Average utilization : 2.987263033175356 %
Cycles for compute  : 1056 cycles

Commencing run for Attn_Qmap
Average utilization : 2.987263033175356 %
Cycles for compute  : 1056 cycles

Commencing run for Attn_QxK'
Average utilization : 1.3727678571428572 %
Cycles for compute  : 160 cycles

Commencing run for Attn_SFMXxV
Average utilization : 2.2110849056603774 %
Cycles for compute  : 160 cycles

Commencing run for Attn_Concat_map
Average utilization : 3.1073285297336737 %
Cycles for compute  : 8224 cycles

Commencing run for Attn_Xmap
Average utilization : 2.987263033175356 %
Cycles for compute  : 1056 cycles

Commencing run for Attn_Kmap
Average utilization : 2.987263033175356 %
Cycles for compute  : 1056 cycles

Commencing run for Attn_Qmap
Average utilization : 2.987263033175356 %
Cycles for compute  : 1056 cycles

Commencing run for Attn_QxK'
Average utilization : 1.3727678571428572 %
Cycles for compute  : 160 cycles

Commencing run for Attn_SFMXxV
Average utilization : 2.2110849056603774 %
Cycles for compute  : 160 cycles

Commencing run for Attn_Concat_map
Average utilization : 3.1073285297336737 %
Cycles for compute  : 8224 cycles

Commencing run for Attn_Xmap
Average utilization : 2.987263033175356 %
Cycles for compute  : 1056 cycles

Commencing run for Attn_Kmap
Average utilization : 2.987263033175356 %
Cycles for compute  : 1056 cycles

Commencing run for Attn_Qmap
Average utilization : 2.987263033175356 %
Cycles for compute  : 1056 cycles

Commencing run for Attn_QxK'
Average utilization : 1.3727678571428572 %
Cycles for compute  : 160 cycles

Commencing run for Attn_SFMXxV
Average utilization : 2.2110849056603774 %
Cycles for compute  : 160 cycles

Commencing run for Attn_Concat_map
Average utilization : 3.1073285297336737 %
Cycles for compute  : 8224 cycles

Commencing run for Attn_Xmap
Average utilization : 2.987263033175356 %
Cycles for compute  : 1056 cycles

Commencing run for Attn_Kmap
Average utilization : 2.987263033175356 %
Cycles for compute  : 1056 cycles

Commencing run for Attn_Qmap
Average utilization : 2.987263033175356 %
Cycles for compute  : 1056 cycles

Commencing run for Attn_QxK'
Average utilization : 1.3727678571428572 %
Cycles for compute  : 160 cycles

Commencing run for Attn_SFMXxV
Average utilization : 2.2110849056603774 %
Cycles for compute  : 160 cycles

Commencing run for Attn_Concat_map
Average utilization : 3.1073285297336737 %
Cycles for compute  : 8224 cycles

Commencing run for FFN1
Average utilization : 3.120569605780664 %
Cycles for compute  : 32800 cycles

Commencing run for FFN2
Average utilization : 3.120569605780664 %
Cycles for compute  : 32800 cycles

Commencing run for Embedding
Average utilization : 99.81473141551632 %
Cycles for compute  : 539680 cycles

Commencing run for Attn_Xmap
Average utilization : 2.987263033175356 %
Cycles for compute  : 1056 cycles

Commencing run for Attn_Kmap
Average utilization : 2.987263033175356 %
Cycles for compute  : 1056 cycles

Commencing run for Attn_Qmap
Average utilization : 2.987263033175356 %
Cycles for compute  : 1056 cycles

Commencing run for Attn_QxK'
Average utilization : 1.3727678571428572 %
Cycles for compute  : 160 cycles

Commencing run for Attn_SFMXxV
Average utilization : 2.2110849056603774 %
Cycles for compute  : 160 cycles

Commencing run for Attn_Concat_map
Average utilization : 3.1073285297336737 %
Cycles for compute  : 8224 cycles

Commencing run for Attn_Xmap
Average utilization : 2.987263033175356 %
Cycles for compute  : 1056 cycles

Commencing run for Attn_Kmap
Average utilization : 2.987263033175356 %
Cycles for compute  : 1056 cycles

Commencing run for Attn_Qmap
Average utilization : 2.987263033175356 %
Cycles for compute  : 1056 cycles

Commencing run for Attn_QxK'
Average utilization : 1.3727678571428572 %
Cycles for compute  : 160 cycles

Commencing run for Attn_SFMXxV
Average utilization : 2.2110849056603774 %
Cycles for compute  : 160 cycles

Commencing run for Attn_Concat_map
Average utilization : 3.1073285297336737 %
Cycles for compute  : 8224 cycles

Commencing run for Attn_Xmap
Average utilization : 2.987263033175356 %
Cycles for compute  : 1056 cycles

Commencing run for Attn_Kmap
Average utilization : 2.987263033175356 %
Cycles for compute  : 1056 cycles

Commencing run for Attn_Qmap
Average utilization : 2.987263033175356 %
Cycles for compute  : 1056 cycles

Commencing run for Attn_QxK'
Average utilization : 1.3727678571428572 %
Cycles for compute  : 160 cycles

Commencing run for Attn_SFMXxV
Average utilization : 2.2110849056603774 %
Cycles for compute  : 160 cycles

Commencing run for Attn_Concat_map
Average utilization : 3.1073285297336737 %
Cycles for compute  : 8224 cycles

Commencing run for Attn_Xmap
Average utilization : 2.987263033175356 %
Cycles for compute  : 1056 cycles

Commencing run for Attn_Kmap
Average utilization : 2.987263033175356 %
Cycles for compute  : 1056 cycles

Commencing run for Attn_Qmap
Average utilization : 2.987263033175356 %
Cycles for compute  : 1056 cycles

Commencing run for Attn_QxK'
Average utilization : 1.3727678571428572 %
Cycles for compute  : 160 cycles

Commencing run for Attn_SFMXxV
Average utilization : 2.2110849056603774 %
Cycles for compute  : 160 cycles

Commencing run for Attn_Concat_map
Average utilization : 3.1073285297336737 %
Cycles for compute  : 8224 cycles

Commencing run for Attn_Xmap
Average utilization : 2.987263033175356 %
Cycles for compute  : 1056 cycles

Commencing run for Attn_Kmap
Average utilization : 2.987263033175356 %
Cycles for compute  : 1056 cycles

Commencing run for Attn_Qmap
Average utilization : 2.987263033175356 %
Cycles for compute  : 1056 cycles

Commencing run for Attn_QxK'
Average utilization : 1.3727678571428572 %
Cycles for compute  : 160 cycles

Commencing run for Attn_SFMXxV
Average utilization : 2.2110849056603774 %
Cycles for compute  : 160 cycles

Commencing run for Attn_Concat_map
Average utilization : 3.1073285297336737 %
Cycles for compute  : 8224 cycles

Commencing run for Attn_Xmap
Average utilization : 2.987263033175356 %
Cycles for compute  : 1056 cycles

Commencing run for Attn_Kmap
Average utilization : 2.987263033175356 %
Cycles for compute  : 1056 cycles

Commencing run for Attn_Qmap
Average utilization : 2.987263033175356 %
Cycles for compute  : 1056 cycles

Commencing run for Attn_QxK'
Average utilization : 1.3727678571428572 %
Cycles for compute  : 160 cycles

Commencing run for Attn_SFMXxV
Average utilization : 2.2110849056603774 %
Cycles for compute  : 160 cycles

Commencing run for Attn_Concat_map
Average utilization : 3.1073285297336737 %
Cycles for compute  : 8224 cycles

Commencing run for Attn_Xmap
Average utilization : 2.987263033175356 %
Cycles for compute  : 1056 cycles

Commencing run for Attn_Kmap
Average utilization : 2.987263033175356 %
Cycles for compute  : 1056 cycles

Commencing run for Attn_Qmap
Average utilization : 2.987263033175356 %
Cycles for compute  : 1056 cycles

Commencing run for Attn_QxK'
Average utilization : 1.3727678571428572 %
Cycles for compute  : 160 cycles

Commencing run for Attn_SFMXxV
Average utilization : 2.2110849056603774 %
Cycles for compute  : 160 cycles

Commencing run for Attn_Concat_map
Average utilization : 3.1073285297336737 %
Cycles for compute  : 8224 cycles

Commencing run for Attn_Xmap
Average utilization : 2.987263033175356 %
Cycles for compute  : 1056 cycles

Commencing run for Attn_Kmap
Average utilization : 2.987263033175356 %
Cycles for compute  : 1056 cycles

Commencing run for Attn_Qmap
Average utilization : 2.987263033175356 %
Cycles for compute  : 1056 cycles

Commencing run for Attn_QxK'
Average utilization : 1.3727678571428572 %
Cycles for compute  : 160 cycles

Commencing run for Attn_SFMXxV
Average utilization : 2.2110849056603774 %
Cycles for compute  : 160 cycles

Commencing run for Attn_Concat_map
Average utilization : 3.1073285297336737 %
Cycles for compute  : 8224 cycles

Commencing run for Attn_Xmap
Average utilization : 2.987263033175356 %
Cycles for compute  : 1056 cycles

Commencing run for Attn_Kmap
Average utilization : 2.987263033175356 %
Cycles for compute  : 1056 cycles

Commencing run for Attn_Qmap
Average utilization : 2.987263033175356 %
Cycles for compute  : 1056 cycles

Commencing run for Attn_QxK'
Average utilization : 1.3727678571428572 %
Cycles for compute  : 160 cycles

Commencing run for Attn_SFMXxV
Average utilization : 2.2110849056603774 %
Cycles for compute  : 160 cycles

Commencing run for Attn_Concat_map
Average utilization : 3.1073285297336737 %
Cycles for compute  : 8224 cycles

Commencing run for Attn_Xmap
Average utilization : 2.987263033175356 %
Cycles for compute  : 1056 cycles

Commencing run for Attn_Kmap
Average utilization : 2.987263033175356 %
Cycles for compute  : 1056 cycles

Commencing run for Attn_Qmap
Average utilization : 2.987263033175356 %
Cycles for compute  : 1056 cycles

Commencing run for Attn_QxK'
Average utilization : 1.3727678571428572 %
Cycles for compute  : 160 cycles

Commencing run for Attn_SFMXxV
Average utilization : 2.2110849056603774 %
Cycles for compute  : 160 cycles

Commencing run for Attn_Concat_map
Average utilization : 3.1073285297336737 %
Cycles for compute  : 8224 cycles

Commencing run for Attn_Xmap
Average utilization : 2.987263033175356 %
Cycles for compute  : 1056 cycles

Commencing run for Attn_Kmap
Average utilization : 2.987263033175356 %
Cycles for compute  : 1056 cycles

Commencing run for Attn_Qmap
Average utilization : 2.987263033175356 %
Cycles for compute  : 1056 cycles

Commencing run for Attn_QxK'
Average utilization : 1.3727678571428572 %
Cycles for compute  : 160 cycles

Commencing run for Attn_SFMXxV
Average utilization : 2.2110849056603774 %
Cycles for compute  : 160 cycles

Commencing run for Attn_Concat_map
Average utilization : 3.1073285297336737 %
Cycles for compute  : 8224 cycles

Commencing run for Attn_Xmap
Average utilization : 2.987263033175356 %
Cycles for compute  : 1056 cycles

Commencing run for Attn_Kmap
Average utilization : 2.987263033175356 %
Cycles for compute  : 1056 cycles

Commencing run for Attn_Qmap
Average utilization : 2.987263033175356 %
Cycles for compute  : 1056 cycles

Commencing run for Attn_QxK'
Average utilization : 1.3727678571428572 %
Cycles for compute  : 160 cycles

Commencing run for Attn_SFMXxV
Average utilization : 2.2110849056603774 %
Cycles for compute  : 160 cycles

Commencing run for Attn_Concat_map
Average utilization : 3.1073285297336737 %
Cycles for compute  : 8224 cycles

Commencing run for Attn_Xmap
Average utilization : 2.987263033175356 %
Cycles for compute  : 1056 cycles

Commencing run for Attn_Kmap
Average utilization : 2.987263033175356 %
Cycles for compute  : 1056 cycles

Commencing run for Attn_Qmap
Average utilization : 2.987263033175356 %
Cycles for compute  : 1056 cycles

Commencing run for Attn_QxK'
Average utilization : 1.3727678571428572 %
Cycles for compute  : 160 cycles

Commencing run for Attn_SFMXxV
Average utilization : 2.2110849056603774 %
Cycles for compute  : 160 cycles

Commencing run for Attn_Concat_map
Average utilization : 3.1073285297336737 %
Cycles for compute  : 8224 cycles

Commencing run for Attn_Xmap
Average utilization : 2.987263033175356 %
Cycles for compute  : 1056 cycles

Commencing run for Attn_Kmap
Average utilization : 2.987263033175356 %
Cycles for compute  : 1056 cycles

Commencing run for Attn_Qmap
Average utilization : 2.987263033175356 %
Cycles for compute  : 1056 cycles

Commencing run for Attn_QxK'
Average utilization : 1.3727678571428572 %
Cycles for compute  : 160 cycles

Commencing run for Attn_SFMXxV
Average utilization : 2.2110849056603774 %
Cycles for compute  : 160 cycles

Commencing run for Attn_Concat_map
Average utilization : 3.1073285297336737 %
Cycles for compute  : 8224 cycles

Commencing run for Attn_Xmap
Average utilization : 2.987263033175356 %
Cycles for compute  : 1056 cycles

Commencing run for Attn_Kmap
Average utilization : 2.987263033175356 %
Cycles for compute  : 1056 cycles

Commencing run for Attn_Qmap
Average utilization : 2.987263033175356 %
Cycles for compute  : 1056 cycles

Commencing run for Attn_QxK'
Average utilization : 1.3727678571428572 %
Cycles for compute  : 160 cycles

Commencing run for Attn_SFMXxV
Average utilization : 2.2110849056603774 %
Cycles for compute  : 160 cycles

Commencing run for Attn_Concat_map
Average utilization : 3.1073285297336737 %
Cycles for compute  : 8224 cycles

Commencing run for Attn_Xmap
Average utilization : 2.987263033175356 %
Cycles for compute  : 1056 cycles

Commencing run for Attn_Kmap
Average utilization : 2.987263033175356 %
Cycles for compute  : 1056 cycles

Commencing run for Attn_Qmap
Average utilization : 2.987263033175356 %
Cycles for compute  : 1056 cycles

Commencing run for Attn_QxK'
Average utilization : 1.3727678571428572 %
Cycles for compute  : 160 cycles

Commencing run for Attn_SFMXxV
Average utilization : 2.2110849056603774 %
Cycles for compute  : 160 cycles

Commencing run for Attn_Concat_map
Average utilization : 3.1073285297336737 %
Cycles for compute  : 8224 cycles

Commencing run for FFN1
Average utilization : 3.120569605780664 %
Cycles for compute  : 32800 cycles

Commencing run for FFN2
Average utilization : 3.120569605780664 %
Cycles for compute  : 32800 cycles

Commencing run for Attn_Xmap
Average utilization : 2.987263033175356 %
Cycles for compute  : 1056 cycles

Commencing run for Attn_Kmap
Average utilization : 2.987263033175356 %
Cycles for compute  : 1056 cycles

Commencing run for Attn_Qmap
Average utilization : 2.987263033175356 %
Cycles for compute  : 1056 cycles

Commencing run for Attn_QxK'
Average utilization : 1.3727678571428572 %
Cycles for compute  : 160 cycles

Commencing run for Attn_SFMXxV
Average utilization : 2.2110849056603774 %
Cycles for compute  : 160 cycles

Commencing run for Attn_Concat_map
Average utilization : 3.1073285297336737 %
Cycles for compute  : 8224 cycles

Commencing run for Attn_Xmap
Average utilization : 2.987263033175356 %
Cycles for compute  : 1056 cycles

Commencing run for Attn_Kmap
Average utilization : 2.987263033175356 %
Cycles for compute  : 1056 cycles

Commencing run for Attn_Qmap
Average utilization : 2.987263033175356 %
Cycles for compute  : 1056 cycles

Commencing run for Attn_QxK'
Average utilization : 1.3727678571428572 %
Cycles for compute  : 160 cycles

Commencing run for Attn_SFMXxV
Average utilization : 2.2110849056603774 %
Cycles for compute  : 160 cycles

Commencing run for Attn_Concat_map
Average utilization : 3.1073285297336737 %
Cycles for compute  : 8224 cycles

Commencing run for Attn_Xmap
Average utilization : 2.987263033175356 %
Cycles for compute  : 1056 cycles

Commencing run for Attn_Kmap
Average utilization : 2.987263033175356 %
Cycles for compute  : 1056 cycles

Commencing run for Attn_Qmap
Average utilization : 2.987263033175356 %
Cycles for compute  : 1056 cycles

Commencing run for Attn_QxK'
Average utilization : 1.3727678571428572 %
Cycles for compute  : 160 cycles

Commencing run for Attn_SFMXxV
Average utilization : 2.2110849056603774 %
Cycles for compute  : 160 cycles

Commencing run for Attn_Concat_map
Average utilization : 3.1073285297336737 %
Cycles for compute  : 8224 cycles

Commencing run for Attn_Xmap
Average utilization : 2.987263033175356 %
Cycles for compute  : 1056 cycles

Commencing run for Attn_Kmap
Average utilization : 2.987263033175356 %
Cycles for compute  : 1056 cycles

Commencing run for Attn_Qmap
Average utilization : 2.987263033175356 %
Cycles for compute  : 1056 cycles

Commencing run for Attn_QxK'
Average utilization : 1.3727678571428572 %
Cycles for compute  : 160 cycles

Commencing run for Attn_SFMXxV
Average utilization : 2.2110849056603774 %
Cycles for compute  : 160 cycles

Commencing run for Attn_Concat_map
Average utilization : 3.1073285297336737 %
Cycles for compute  : 8224 cycles

Commencing run for Attn_Xmap
Average utilization : 2.987263033175356 %
Cycles for compute  : 1056 cycles

Commencing run for Attn_Kmap
Average utilization : 2.987263033175356 %
Cycles for compute  : 1056 cycles

Commencing run for Attn_Qmap
Average utilization : 2.987263033175356 %
Cycles for compute  : 1056 cycles

Commencing run for Attn_QxK'
Average utilization : 1.3727678571428572 %
Cycles for compute  : 160 cycles

Commencing run for Attn_SFMXxV
Average utilization : 2.2110849056603774 %
Cycles for compute  : 160 cycles

Commencing run for Attn_Concat_map
Average utilization : 3.1073285297336737 %
Cycles for compute  : 8224 cycles

Commencing run for Attn_Xmap
Average utilization : 2.987263033175356 %
Cycles for compute  : 1056 cycles

Commencing run for Attn_Kmap
Average utilization : 2.987263033175356 %
Cycles for compute  : 1056 cycles

Commencing run for Attn_Qmap
Average utilization : 2.987263033175356 %
Cycles for compute  : 1056 cycles

Commencing run for Attn_QxK'
Average utilization : 1.3727678571428572 %
Cycles for compute  : 160 cycles

Commencing run for Attn_SFMXxV
Average utilization : 2.2110849056603774 %
Cycles for compute  : 160 cycles

Commencing run for Attn_Concat_map
Average utilization : 3.1073285297336737 %
Cycles for compute  : 8224 cycles

Commencing run for Attn_Xmap
Average utilization : 2.987263033175356 %
Cycles for compute  : 1056 cycles

Commencing run for Attn_Kmap
Average utilization : 2.987263033175356 %
Cycles for compute  : 1056 cycles

Commencing run for Attn_Qmap
Average utilization : 2.987263033175356 %
Cycles for compute  : 1056 cycles

Commencing run for Attn_QxK'
Average utilization : 1.3727678571428572 %
Cycles for compute  : 160 cycles

Commencing run for Attn_SFMXxV
Average utilization : 2.2110849056603774 %
Cycles for compute  : 160 cycles

Commencing run for Attn_Concat_map
Average utilization : 3.1073285297336737 %
Cycles for compute  : 8224 cycles

Commencing run for Attn_Xmap
Average utilization : 2.987263033175356 %
Cycles for compute  : 1056 cycles

Commencing run for Attn_Kmap
Average utilization : 2.987263033175356 %
Cycles for compute  : 1056 cycles

Commencing run for Attn_Qmap
Average utilization : 2.987263033175356 %
Cycles for compute  : 1056 cycles

Commencing run for Attn_QxK'
Average utilization : 1.3727678571428572 %
Cycles for compute  : 160 cycles

Commencing run for Attn_SFMXxV
Average utilization : 2.2110849056603774 %
Cycles for compute  : 160 cycles

Commencing run for Attn_Concat_map
Average utilization : 3.1073285297336737 %
Cycles for compute  : 8224 cycles

Commencing run for Attn_Xmap
Average utilization : 2.987263033175356 %
Cycles for compute  : 1056 cycles

Commencing run for Attn_Kmap
Average utilization : 2.987263033175356 %
Cycles for compute  : 1056 cycles

Commencing run for Attn_Qmap
Average utilization : 2.987263033175356 %
Cycles for compute  : 1056 cycles

Commencing run for Attn_QxK'
Average utilization : 1.3727678571428572 %
Cycles for compute  : 160 cycles

Commencing run for Attn_SFMXxV
Average utilization : 2.2110849056603774 %
Cycles for compute  : 160 cycles

Commencing run for Attn_Concat_map
Average utilization : 3.1073285297336737 %
Cycles for compute  : 8224 cycles

Commencing run for Attn_Xmap
Average utilization : 2.987263033175356 %
Cycles for compute  : 1056 cycles

Commencing run for Attn_Kmap
Average utilization : 2.987263033175356 %
Cycles for compute  : 1056 cycles

Commencing run for Attn_Qmap
Average utilization : 2.987263033175356 %
Cycles for compute  : 1056 cycles

Commencing run for Attn_QxK'
Average utilization : 1.3727678571428572 %
Cycles for compute  : 160 cycles

Commencing run for Attn_SFMXxV
Average utilization : 2.2110849056603774 %
Cycles for compute  : 160 cycles

Commencing run for Attn_Concat_map
Average utilization : 3.1073285297336737 %
Cycles for compute  : 8224 cycles

Commencing run for Attn_Xmap
Average utilization : 2.987263033175356 %
Cycles for compute  : 1056 cycles

Commencing run for Attn_Kmap
Average utilization : 2.987263033175356 %
Cycles for compute  : 1056 cycles

Commencing run for Attn_Qmap
Average utilization : 2.987263033175356 %
Cycles for compute  : 1056 cycles

Commencing run for Attn_QxK'
Average utilization : 1.3727678571428572 %
Cycles for compute  : 160 cycles

Commencing run for Attn_SFMXxV
Average utilization : 2.2110849056603774 %
Cycles for compute  : 160 cycles

Commencing run for Attn_Concat_map
Average utilization : 3.1073285297336737 %
Cycles for compute  : 8224 cycles

Commencing run for Attn_Xmap
Average utilization : 2.987263033175356 %
Cycles for compute  : 1056 cycles

Commencing run for Attn_Kmap
Average utilization : 2.987263033175356 %
Cycles for compute  : 1056 cycles

Commencing run for Attn_Qmap
Average utilization : 2.987263033175356 %
Cycles for compute  : 1056 cycles

Commencing run for Attn_QxK'
Average utilization : 1.3727678571428572 %
Cycles for compute  : 160 cycles

Commencing run for Attn_SFMXxV
Average utilization : 2.2110849056603774 %
Cycles for compute  : 160 cycles

Commencing run for Attn_Concat_map
Average utilization : 3.1073285297336737 %
Cycles for compute  : 8224 cycles

Commencing run for Attn_Xmap
Average utilization : 2.987263033175356 %
Cycles for compute  : 1056 cycles

Commencing run for Attn_Kmap
Average utilization : 2.987263033175356 %
Cycles for compute  : 1056 cycles

Commencing run for Attn_Qmap
Average utilization : 2.987263033175356 %
Cycles for compute  : 1056 cycles

Commencing run for Attn_QxK'
Average utilization : 1.3727678571428572 %
Cycles for compute  : 160 cycles

Commencing run for Attn_SFMXxV
Average utilization : 2.2110849056603774 %
Cycles for compute  : 160 cycles

Commencing run for Attn_Concat_map
Average utilization : 3.1073285297336737 %
Cycles for compute  : 8224 cycles

Commencing run for Attn_Xmap
Average utilization : 2.987263033175356 %
Cycles for compute  : 1056 cycles

Commencing run for Attn_Kmap
Average utilization : 2.987263033175356 %
Cycles for compute  : 1056 cycles

Commencing run for Attn_Qmap
Average utilization : 2.987263033175356 %
Cycles for compute  : 1056 cycles

Commencing run for Attn_QxK'
Average utilization : 1.3727678571428572 %
Cycles for compute  : 160 cycles

Commencing run for Attn_SFMXxV
Average utilization : 2.2110849056603774 %
Cycles for compute  : 160 cycles

Commencing run for Attn_Concat_map
Average utilization : 3.1073285297336737 %
Cycles for compute  : 8224 cycles

Commencing run for Attn_Xmap
Average utilization : 2.987263033175356 %
Cycles for compute  : 1056 cycles

Commencing run for Attn_Kmap
Average utilization : 2.987263033175356 %
Cycles for compute  : 1056 cycles

Commencing run for Attn_Qmap
Average utilization : 2.987263033175356 %
Cycles for compute  : 1056 cycles

Commencing run for Attn_QxK'
Average utilization : 1.3727678571428572 %
Cycles for compute  : 160 cycles

Commencing run for Attn_SFMXxV
Average utilization : 2.2110849056603774 %
Cycles for compute  : 160 cycles

Commencing run for Attn_Concat_map
Average utilization : 3.1073285297336737 %
Cycles for compute  : 8224 cycles

Commencing run for Attn_Xmap
Average utilization : 2.987263033175356 %
Cycles for compute  : 1056 cycles

Commencing run for Attn_Kmap
Average utilization : 2.987263033175356 %
Cycles for compute  : 1056 cycles

Commencing run for Attn_Qmap
Average utilization : 2.987263033175356 %
Cycles for compute  : 1056 cycles

Commencing run for Attn_QxK'
Average utilization : 1.3727678571428572 %
Cycles for compute  : 160 cycles

Commencing run for Attn_SFMXxV
Average utilization : 2.2110849056603774 %
Cycles for compute  : 160 cycles

Commencing run for Attn_Concat_map
Average utilization : 3.1073285297336737 %
Cycles for compute  : 8224 cycles

Commencing run for FFN1
Average utilization : 3.120569605780664 %
Cycles for compute  : 32800 cycles

Commencing run for FFN2
Average utilization : 3.120569605780664 %
Cycles for compute  : 32800 cycles

Commencing run for Attn_Xmap
Average utilization : 2.987263033175356 %
Cycles for compute  : 1056 cycles

Commencing run for Attn_Kmap
Average utilization : 2.987263033175356 %
Cycles for compute  : 1056 cycles

Commencing run for Attn_Qmap
Average utilization : 2.987263033175356 %
Cycles for compute  : 1056 cycles

Commencing run for Attn_QxK'
Average utilization : 1.3727678571428572 %
Cycles for compute  : 160 cycles

Commencing run for Attn_SFMXxV
Average utilization : 2.2110849056603774 %
Cycles for compute  : 160 cycles

Commencing run for Attn_Concat_map
Average utilization : 3.1073285297336737 %
Cycles for compute  : 8224 cycles

Commencing run for Attn_Xmap
Average utilization : 2.987263033175356 %
Cycles for compute  : 1056 cycles

Commencing run for Attn_Kmap
Average utilization : 2.987263033175356 %
Cycles for compute  : 1056 cycles

Commencing run for Attn_Qmap
Average utilization : 2.987263033175356 %
Cycles for compute  : 1056 cycles

Commencing run for Attn_QxK'
Average utilization : 1.3727678571428572 %
Cycles for compute  : 160 cycles

Commencing run for Attn_SFMXxV
Average utilization : 2.2110849056603774 %
Cycles for compute  : 160 cycles

Commencing run for Attn_Concat_map
Average utilization : 3.1073285297336737 %
Cycles for compute  : 8224 cycles

Commencing run for Attn_Xmap
Average utilization : 2.987263033175356 %
Cycles for compute  : 1056 cycles

Commencing run for Attn_Kmap
Average utilization : 2.987263033175356 %
Cycles for compute  : 1056 cycles

Commencing run for Attn_Qmap
Average utilization : 2.987263033175356 %
Cycles for compute  : 1056 cycles

Commencing run for Attn_QxK'
Average utilization : 1.3727678571428572 %
Cycles for compute  : 160 cycles

Commencing run for Attn_SFMXxV
Average utilization : 2.2110849056603774 %
Cycles for compute  : 160 cycles

Commencing run for Attn_Concat_map
Average utilization : 3.1073285297336737 %
Cycles for compute  : 8224 cycles

Commencing run for Attn_Xmap
Average utilization : 2.987263033175356 %
Cycles for compute  : 1056 cycles

Commencing run for Attn_Kmap
Average utilization : 2.987263033175356 %
Cycles for compute  : 1056 cycles

Commencing run for Attn_Qmap
Average utilization : 2.987263033175356 %
Cycles for compute  : 1056 cycles

Commencing run for Attn_QxK'
Average utilization : 1.3727678571428572 %
Cycles for compute  : 160 cycles

Commencing run for Attn_SFMXxV
Average utilization : 2.2110849056603774 %
Cycles for compute  : 160 cycles

Commencing run for Attn_Concat_map
Average utilization : 3.1073285297336737 %
Cycles for compute  : 8224 cycles

Commencing run for Attn_Xmap
Average utilization : 2.987263033175356 %
Cycles for compute  : 1056 cycles

Commencing run for Attn_Kmap
Average utilization : 2.987263033175356 %
Cycles for compute  : 1056 cycles

Commencing run for Attn_Qmap
Average utilization : 2.987263033175356 %
Cycles for compute  : 1056 cycles

Commencing run for Attn_QxK'
Average utilization : 1.3727678571428572 %
Cycles for compute  : 160 cycles

Commencing run for Attn_SFMXxV
Average utilization : 2.2110849056603774 %
Cycles for compute  : 160 cycles

Commencing run for Attn_Concat_map
Average utilization : 3.1073285297336737 %
Cycles for compute  : 8224 cycles

Commencing run for Attn_Xmap
Average utilization : 2.987263033175356 %
Cycles for compute  : 1056 cycles

Commencing run for Attn_Kmap
Average utilization : 2.987263033175356 %
Cycles for compute  : 1056 cycles

Commencing run for Attn_Qmap
Average utilization : 2.987263033175356 %
Cycles for compute  : 1056 cycles

Commencing run for Attn_QxK'
Average utilization : 1.3727678571428572 %
Cycles for compute  : 160 cycles

Commencing run for Attn_SFMXxV
Average utilization : 2.2110849056603774 %
Cycles for compute  : 160 cycles

Commencing run for Attn_Concat_map
Average utilization : 3.1073285297336737 %
Cycles for compute  : 8224 cycles

Commencing run for Attn_Xmap
Average utilization : 2.987263033175356 %
Cycles for compute  : 1056 cycles

Commencing run for Attn_Kmap
Average utilization : 2.987263033175356 %
Cycles for compute  : 1056 cycles

Commencing run for Attn_Qmap
Average utilization : 2.987263033175356 %
Cycles for compute  : 1056 cycles

Commencing run for Attn_QxK'
Average utilization : 1.3727678571428572 %
Cycles for compute  : 160 cycles

Commencing run for Attn_SFMXxV
Average utilization : 2.2110849056603774 %
Cycles for compute  : 160 cycles

Commencing run for Attn_Concat_map
Average utilization : 3.1073285297336737 %
Cycles for compute  : 8224 cycles

Commencing run for Attn_Xmap
Average utilization : 2.987263033175356 %
Cycles for compute  : 1056 cycles

Commencing run for Attn_Kmap
Average utilization : 2.987263033175356 %
Cycles for compute  : 1056 cycles

Commencing run for Attn_Qmap
Average utilization : 2.987263033175356 %
Cycles for compute  : 1056 cycles

Commencing run for Attn_QxK'
Average utilization : 1.3727678571428572 %
Cycles for compute  : 160 cycles

Commencing run for Attn_SFMXxV
Average utilization : 2.2110849056603774 %
Cycles for compute  : 160 cycles

Commencing run for Attn_Concat_map
Average utilization : 3.1073285297336737 %
Cycles for compute  : 8224 cycles

Commencing run for Attn_Xmap
Average utilization : 2.987263033175356 %
Cycles for compute  : 1056 cycles

Commencing run for Attn_Kmap
Average utilization : 2.987263033175356 %
Cycles for compute  : 1056 cycles

Commencing run for Attn_Qmap
Average utilization : 2.987263033175356 %
Cycles for compute  : 1056 cycles

Commencing run for Attn_QxK'
Average utilization : 1.3727678571428572 %
Cycles for compute  : 160 cycles

Commencing run for Attn_SFMXxV
Average utilization : 2.2110849056603774 %
Cycles for compute  : 160 cycles

Commencing run for Attn_Concat_map
Average utilization : 3.1073285297336737 %
Cycles for compute  : 8224 cycles

Commencing run for Attn_Xmap
Average utilization : 2.987263033175356 %
Cycles for compute  : 1056 cycles

Commencing run for Attn_Kmap
Average utilization : 2.987263033175356 %
Cycles for compute  : 1056 cycles

Commencing run for Attn_Qmap
Average utilization : 2.987263033175356 %
Cycles for compute  : 1056 cycles

Commencing run for Attn_QxK'
Average utilization : 1.3727678571428572 %
Cycles for compute  : 160 cycles

Commencing run for Attn_SFMXxV
Average utilization : 2.2110849056603774 %
Cycles for compute  : 160 cycles

Commencing run for Attn_Concat_map
Average utilization : 3.1073285297336737 %
Cycles for compute  : 8224 cycles

Commencing run for Attn_Xmap
Average utilization : 2.987263033175356 %
Cycles for compute  : 1056 cycles

Commencing run for Attn_Kmap
Average utilization : 2.987263033175356 %
Cycles for compute  : 1056 cycles

Commencing run for Attn_Qmap
Average utilization : 2.987263033175356 %
Cycles for compute  : 1056 cycles

Commencing run for Attn_QxK'
Average utilization : 1.3727678571428572 %
Cycles for compute  : 160 cycles

Commencing run for Attn_SFMXxV
Average utilization : 2.2110849056603774 %
Cycles for compute  : 160 cycles

Commencing run for Attn_Concat_map
Average utilization : 3.1073285297336737 %
Cycles for compute  : 8224 cycles

Commencing run for Attn_Xmap
Average utilization : 2.987263033175356 %
Cycles for compute  : 1056 cycles

Commencing run for Attn_Kmap
Average utilization : 2.987263033175356 %
Cycles for compute  : 1056 cycles

Commencing run for Attn_Qmap
Average utilization : 2.987263033175356 %
Cycles for compute  : 1056 cycles

Commencing run for Attn_QxK'
Average utilization : 1.3727678571428572 %
Cycles for compute  : 160 cycles

Commencing run for Attn_SFMXxV
Average utilization : 2.2110849056603774 %
Cycles for compute  : 160 cycles

Commencing run for Attn_Concat_map
Average utilization : 3.1073285297336737 %
Cycles for compute  : 8224 cycles

Commencing run for Attn_Xmap
Average utilization : 2.987263033175356 %
Cycles for compute  : 1056 cycles

Commencing run for Attn_Kmap
Average utilization : 2.987263033175356 %
Cycles for compute  : 1056 cycles

Commencing run for Attn_Qmap
Average utilization : 2.987263033175356 %
Cycles for compute  : 1056 cycles

Commencing run for Attn_QxK'
Average utilization : 1.3727678571428572 %
Cycles for compute  : 160 cycles

Commencing run for Attn_SFMXxV
Average utilization : 2.2110849056603774 %
Cycles for compute  : 160 cycles

Commencing run for Attn_Concat_map
Average utilization : 3.1073285297336737 %
Cycles for compute  : 8224 cycles

Commencing run for Attn_Xmap
Average utilization : 2.987263033175356 %
Cycles for compute  : 1056 cycles

Commencing run for Attn_Kmap
Average utilization : 2.987263033175356 %
Cycles for compute  : 1056 cycles

Commencing run for Attn_Qmap
Average utilization : 2.987263033175356 %
Cycles for compute  : 1056 cycles

Commencing run for Attn_QxK'
Average utilization : 1.3727678571428572 %
Cycles for compute  : 160 cycles

Commencing run for Attn_SFMXxV
Average utilization : 2.2110849056603774 %
Cycles for compute  : 160 cycles

Commencing run for Attn_Concat_map
Average utilization : 3.1073285297336737 %
Cycles for compute  : 8224 cycles

Commencing run for Attn_Xmap
Average utilization : 2.987263033175356 %
Cycles for compute  : 1056 cycles

Commencing run for Attn_Kmap
Average utilization : 2.987263033175356 %
Cycles for compute  : 1056 cycles

Commencing run for Attn_Qmap
Average utilization : 2.987263033175356 %
Cycles for compute  : 1056 cycles

Commencing run for Attn_QxK'
Average utilization : 1.3727678571428572 %
Cycles for compute  : 160 cycles

Commencing run for Attn_SFMXxV
Average utilization : 2.2110849056603774 %
Cycles for compute  : 160 cycles

Commencing run for Attn_Concat_map
Average utilization : 3.1073285297336737 %
Cycles for compute  : 8224 cycles

Commencing run for Attn_Xmap
Average utilization : 2.987263033175356 %
Cycles for compute  : 1056 cycles

Commencing run for Attn_Kmap
Average utilization : 2.987263033175356 %
Cycles for compute  : 1056 cycles

Commencing run for Attn_Qmap
Average utilization : 2.987263033175356 %
Cycles for compute  : 1056 cycles

Commencing run for Attn_QxK'
Average utilization : 1.3727678571428572 %
Cycles for compute  : 160 cycles

Commencing run for Attn_SFMXxV
Average utilization : 2.2110849056603774 %
Cycles for compute  : 160 cycles

Commencing run for Attn_Concat_map
Average utilization : 3.1073285297336737 %
Cycles for compute  : 8224 cycles

Commencing run for FFN1
Average utilization : 3.120569605780664 %
Cycles for compute  : 32800 cycles

Commencing run for FFN2
Average utilization : 3.120569605780664 %
Cycles for compute  : 32800 cycles

Commencing run for Attn_Xmap
Average utilization : 2.987263033175356 %
Cycles for compute  : 1056 cycles

Commencing run for Attn_Kmap
Average utilization : 2.987263033175356 %
Cycles for compute  : 1056 cycles

Commencing run for Attn_Qmap
Average utilization : 2.987263033175356 %
Cycles for compute  : 1056 cycles

Commencing run for Attn_QxK'
Average utilization : 1.3727678571428572 %
Cycles for compute  : 160 cycles

Commencing run for Attn_SFMXxV
Average utilization : 2.2110849056603774 %
Cycles for compute  : 160 cycles

Commencing run for Attn_Concat_map
Average utilization : 3.1073285297336737 %
Cycles for compute  : 8224 cycles

Commencing run for Attn_Xmap
Average utilization : 2.987263033175356 %
Cycles for compute  : 1056 cycles

Commencing run for Attn_Kmap
Average utilization : 2.987263033175356 %
Cycles for compute  : 1056 cycles

Commencing run for Attn_Qmap
Average utilization : 2.987263033175356 %
Cycles for compute  : 1056 cycles

Commencing run for Attn_QxK'
Average utilization : 1.3727678571428572 %
Cycles for compute  : 160 cycles

Commencing run for Attn_SFMXxV
Average utilization : 2.2110849056603774 %
Cycles for compute  : 160 cycles

Commencing run for Attn_Concat_map
Average utilization : 3.1073285297336737 %
Cycles for compute  : 8224 cycles

Commencing run for Attn_Xmap
Average utilization : 2.987263033175356 %
Cycles for compute  : 1056 cycles

Commencing run for Attn_Kmap
Average utilization : 2.987263033175356 %
Cycles for compute  : 1056 cycles

Commencing run for Attn_Qmap
Average utilization : 2.987263033175356 %
Cycles for compute  : 1056 cycles

Commencing run for Attn_QxK'
Average utilization : 1.3727678571428572 %
Cycles for compute  : 160 cycles

Commencing run for Attn_SFMXxV
Average utilization : 2.2110849056603774 %
Cycles for compute  : 160 cycles

Commencing run for Attn_Concat_map
Average utilization : 3.1073285297336737 %
Cycles for compute  : 8224 cycles

Commencing run for Attn_Xmap
Average utilization : 2.987263033175356 %
Cycles for compute  : 1056 cycles

Commencing run for Attn_Kmap
Average utilization : 2.987263033175356 %
Cycles for compute  : 1056 cycles

Commencing run for Attn_Qmap
Average utilization : 2.987263033175356 %
Cycles for compute  : 1056 cycles

Commencing run for Attn_QxK'
Average utilization : 1.3727678571428572 %
Cycles for compute  : 160 cycles

Commencing run for Attn_SFMXxV
Average utilization : 2.2110849056603774 %
Cycles for compute  : 160 cycles

Commencing run for Attn_Concat_map
Average utilization : 3.1073285297336737 %
Cycles for compute  : 8224 cycles

Commencing run for Attn_Xmap
Average utilization : 2.987263033175356 %
Cycles for compute  : 1056 cycles

Commencing run for Attn_Kmap
Average utilization : 2.987263033175356 %
Cycles for compute  : 1056 cycles

Commencing run for Attn_Qmap
Average utilization : 2.987263033175356 %
Cycles for compute  : 1056 cycles

Commencing run for Attn_QxK'
Average utilization : 1.3727678571428572 %
Cycles for compute  : 160 cycles

Commencing run for Attn_SFMXxV
Average utilization : 2.2110849056603774 %
Cycles for compute  : 160 cycles

Commencing run for Attn_Concat_map
Average utilization : 3.1073285297336737 %
Cycles for compute  : 8224 cycles

Commencing run for Attn_Xmap
Average utilization : 2.987263033175356 %
Cycles for compute  : 1056 cycles

Commencing run for Attn_Kmap
Average utilization : 2.987263033175356 %
Cycles for compute  : 1056 cycles

Commencing run for Attn_Qmap
Average utilization : 2.987263033175356 %
Cycles for compute  : 1056 cycles

Commencing run for Attn_QxK'
Average utilization : 1.3727678571428572 %
Cycles for compute  : 160 cycles

Commencing run for Attn_SFMXxV
Average utilization : 2.2110849056603774 %
Cycles for compute  : 160 cycles

Commencing run for Attn_Concat_map
Average utilization : 3.1073285297336737 %
Cycles for compute  : 8224 cycles

Commencing run for Attn_Xmap
Average utilization : 2.987263033175356 %
Cycles for compute  : 1056 cycles

Commencing run for Attn_Kmap
Average utilization : 2.987263033175356 %
Cycles for compute  : 1056 cycles

Commencing run for Attn_Qmap
Average utilization : 2.987263033175356 %
Cycles for compute  : 1056 cycles

Commencing run for Attn_QxK'
Average utilization : 1.3727678571428572 %
Cycles for compute  : 160 cycles

Commencing run for Attn_SFMXxV
Average utilization : 2.2110849056603774 %
Cycles for compute  : 160 cycles

Commencing run for Attn_Concat_map
Average utilization : 3.1073285297336737 %
Cycles for compute  : 8224 cycles

Commencing run for Attn_Xmap
Average utilization : 2.987263033175356 %
Cycles for compute  : 1056 cycles

Commencing run for Attn_Kmap
Average utilization : 2.987263033175356 %
Cycles for compute  : 1056 cycles

Commencing run for Attn_Qmap
Average utilization : 2.987263033175356 %
Cycles for compute  : 1056 cycles

Commencing run for Attn_QxK'
Average utilization : 1.3727678571428572 %
Cycles for compute  : 160 cycles

Commencing run for Attn_SFMXxV
Average utilization : 2.2110849056603774 %
Cycles for compute  : 160 cycles

Commencing run for Attn_Concat_map
Average utilization : 3.1073285297336737 %
Cycles for compute  : 8224 cycles

Commencing run for Attn_Xmap
Average utilization : 2.987263033175356 %
Cycles for compute  : 1056 cycles

Commencing run for Attn_Kmap
Average utilization : 2.987263033175356 %
Cycles for compute  : 1056 cycles

Commencing run for Attn_Qmap
Average utilization : 2.987263033175356 %
Cycles for compute  : 1056 cycles

Commencing run for Attn_QxK'
Average utilization : 1.3727678571428572 %
Cycles for compute  : 160 cycles

Commencing run for Attn_SFMXxV
Average utilization : 2.2110849056603774 %
Cycles for compute  : 160 cycles

Commencing run for Attn_Concat_map
Average utilization : 3.1073285297336737 %
Cycles for compute  : 8224 cycles

Commencing run for Attn_Xmap
Average utilization : 2.987263033175356 %
Cycles for compute  : 1056 cycles

Commencing run for Attn_Kmap
Average utilization : 2.987263033175356 %
Cycles for compute  : 1056 cycles

Commencing run for Attn_Qmap
Average utilization : 2.987263033175356 %
Cycles for compute  : 1056 cycles

Commencing run for Attn_QxK'
Average utilization : 1.3727678571428572 %
Cycles for compute  : 160 cycles

Commencing run for Attn_SFMXxV
Average utilization : 2.2110849056603774 %
Cycles for compute  : 160 cycles

Commencing run for Attn_Concat_map
Average utilization : 3.1073285297336737 %
Cycles for compute  : 8224 cycles

Commencing run for Attn_Xmap
Average utilization : 2.987263033175356 %
Cycles for compute  : 1056 cycles

Commencing run for Attn_Kmap
Average utilization : 2.987263033175356 %
Cycles for compute  : 1056 cycles

Commencing run for Attn_Qmap
Average utilization : 2.987263033175356 %
Cycles for compute  : 1056 cycles

Commencing run for Attn_QxK'
Average utilization : 1.3727678571428572 %
Cycles for compute  : 160 cycles

Commencing run for Attn_SFMXxV
Average utilization : 2.2110849056603774 %
Cycles for compute  : 160 cycles

Commencing run for Attn_Concat_map
Average utilization : 3.1073285297336737 %
Cycles for compute  : 8224 cycles

Commencing run for Attn_Xmap
Average utilization : 2.987263033175356 %
Cycles for compute  : 1056 cycles

Commencing run for Attn_Kmap
Average utilization : 2.987263033175356 %
Cycles for compute  : 1056 cycles

Commencing run for Attn_Qmap
Average utilization : 2.987263033175356 %
Cycles for compute  : 1056 cycles

Commencing run for Attn_QxK'
Average utilization : 1.3727678571428572 %
Cycles for compute  : 160 cycles

Commencing run for Attn_SFMXxV
Average utilization : 2.2110849056603774 %
Cycles for compute  : 160 cycles

Commencing run for Attn_Concat_map
Average utilization : 3.1073285297336737 %
Cycles for compute  : 8224 cycles

Commencing run for Attn_Xmap
Average utilization : 2.987263033175356 %
Cycles for compute  : 1056 cycles

Commencing run for Attn_Kmap
Average utilization : 2.987263033175356 %
Cycles for compute  : 1056 cycles

Commencing run for Attn_Qmap
Average utilization : 2.987263033175356 %
Cycles for compute  : 1056 cycles

Commencing run for Attn_QxK'
Average utilization : 1.3727678571428572 %
Cycles for compute  : 160 cycles

Commencing run for Attn_SFMXxV
Average utilization : 2.2110849056603774 %
Cycles for compute  : 160 cycles

Commencing run for Attn_Concat_map
Average utilization : 3.1073285297336737 %
Cycles for compute  : 8224 cycles

Commencing run for Attn_Xmap
Average utilization : 2.987263033175356 %
Cycles for compute  : 1056 cycles

Commencing run for Attn_Kmap
Average utilization : 2.987263033175356 %
Cycles for compute  : 1056 cycles

Commencing run for Attn_Qmap
Average utilization : 2.987263033175356 %
Cycles for compute  : 1056 cycles

Commencing run for Attn_QxK'
Average utilization : 1.3727678571428572 %
Cycles for compute  : 160 cycles

Commencing run for Attn_SFMXxV
Average utilization : 2.2110849056603774 %
Cycles for compute  : 160 cycles

Commencing run for Attn_Concat_map
Average utilization : 3.1073285297336737 %
Cycles for compute  : 8224 cycles

Commencing run for Attn_Xmap
Average utilization : 2.987263033175356 %
Cycles for compute  : 1056 cycles

Commencing run for Attn_Kmap
Average utilization : 2.987263033175356 %
Cycles for compute  : 1056 cycles

Commencing run for Attn_Qmap
Average utilization : 2.987263033175356 %
Cycles for compute  : 1056 cycles

Commencing run for Attn_QxK'
Average utilization : 1.3727678571428572 %
Cycles for compute  : 160 cycles

Commencing run for Attn_SFMXxV
Average utilization : 2.2110849056603774 %
Cycles for compute  : 160 cycles

Commencing run for Attn_Concat_map
Average utilization : 3.1073285297336737 %
Cycles for compute  : 8224 cycles

Commencing run for Attn_Xmap
Average utilization : 2.987263033175356 %
Cycles for compute  : 1056 cycles

Commencing run for Attn_Kmap
Average utilization : 2.987263033175356 %
Cycles for compute  : 1056 cycles

Commencing run for Attn_Qmap
Average utilization : 2.987263033175356 %
Cycles for compute  : 1056 cycles

Commencing run for Attn_QxK'
Average utilization : 1.3727678571428572 %
Cycles for compute  : 160 cycles

Commencing run for Attn_SFMXxV
Average utilization : 2.2110849056603774 %
Cycles for compute  : 160 cycles

Commencing run for Attn_Concat_map
Average utilization : 3.1073285297336737 %
Cycles for compute  : 8224 cycles

Commencing run for FFN1
Average utilization : 3.120569605780664 %
Cycles for compute  : 32800 cycles

Commencing run for FFN2
Average utilization : 3.120569605780664 %
Cycles for compute  : 32800 cycles

Commencing run for Attn_Xmap
Average utilization : 2.987263033175356 %
Cycles for compute  : 1056 cycles

Commencing run for Attn_Kmap
Average utilization : 2.987263033175356 %
Cycles for compute  : 1056 cycles

Commencing run for Attn_Qmap
Average utilization : 2.987263033175356 %
Cycles for compute  : 1056 cycles

Commencing run for Attn_QxK'
Average utilization : 1.3727678571428572 %
Cycles for compute  : 160 cycles

Commencing run for Attn_SFMXxV
Average utilization : 2.2110849056603774 %
Cycles for compute  : 160 cycles

Commencing run for Attn_Concat_map
Average utilization : 3.1073285297336737 %
Cycles for compute  : 8224 cycles

Commencing run for Attn_Xmap
Average utilization : 2.987263033175356 %
Cycles for compute  : 1056 cycles

Commencing run for Attn_Kmap
Average utilization : 2.987263033175356 %
Cycles for compute  : 1056 cycles

Commencing run for Attn_Qmap
Average utilization : 2.987263033175356 %
Cycles for compute  : 1056 cycles

Commencing run for Attn_QxK'
Average utilization : 1.3727678571428572 %
Cycles for compute  : 160 cycles

Commencing run for Attn_SFMXxV
Average utilization : 2.2110849056603774 %
Cycles for compute  : 160 cycles

Commencing run for Attn_Concat_map
Average utilization : 3.1073285297336737 %
Cycles for compute  : 8224 cycles

Commencing run for Attn_Xmap
Average utilization : 2.987263033175356 %
Cycles for compute  : 1056 cycles

Commencing run for Attn_Kmap
Average utilization : 2.987263033175356 %
Cycles for compute  : 1056 cycles

Commencing run for Attn_Qmap
Average utilization : 2.987263033175356 %
Cycles for compute  : 1056 cycles

Commencing run for Attn_QxK'
Average utilization : 1.3727678571428572 %
Cycles for compute  : 160 cycles

Commencing run for Attn_SFMXxV
Average utilization : 2.2110849056603774 %
Cycles for compute  : 160 cycles

Commencing run for Attn_Concat_map
Average utilization : 3.1073285297336737 %
Cycles for compute  : 8224 cycles

Commencing run for Attn_Xmap
Average utilization : 2.987263033175356 %
Cycles for compute  : 1056 cycles

Commencing run for Attn_Kmap
Average utilization : 2.987263033175356 %
Cycles for compute  : 1056 cycles

Commencing run for Attn_Qmap
Average utilization : 2.987263033175356 %
Cycles for compute  : 1056 cycles

Commencing run for Attn_QxK'
Average utilization : 1.3727678571428572 %
Cycles for compute  : 160 cycles

Commencing run for Attn_SFMXxV
Average utilization : 2.2110849056603774 %
Cycles for compute  : 160 cycles

Commencing run for Attn_Concat_map
Average utilization : 3.1073285297336737 %
Cycles for compute  : 8224 cycles

Commencing run for Attn_Xmap
Average utilization : 2.987263033175356 %
Cycles for compute  : 1056 cycles

Commencing run for Attn_Kmap
Average utilization : 2.987263033175356 %
Cycles for compute  : 1056 cycles

Commencing run for Attn_Qmap
Average utilization : 2.987263033175356 %
Cycles for compute  : 1056 cycles

Commencing run for Attn_QxK'
Average utilization : 1.3727678571428572 %
Cycles for compute  : 160 cycles

Commencing run for Attn_SFMXxV
Average utilization : 2.2110849056603774 %
Cycles for compute  : 160 cycles

Commencing run for Attn_Concat_map
Average utilization : 3.1073285297336737 %
Cycles for compute  : 8224 cycles

Commencing run for Attn_Xmap
Average utilization : 2.987263033175356 %
Cycles for compute  : 1056 cycles

Commencing run for Attn_Kmap
Average utilization : 2.987263033175356 %
Cycles for compute  : 1056 cycles

Commencing run for Attn_Qmap
Average utilization : 2.987263033175356 %
Cycles for compute  : 1056 cycles

Commencing run for Attn_QxK'
Average utilization : 1.3727678571428572 %
Cycles for compute  : 160 cycles

Commencing run for Attn_SFMXxV
Average utilization : 2.2110849056603774 %
Cycles for compute  : 160 cycles

Commencing run for Attn_Concat_map
Average utilization : 3.1073285297336737 %
Cycles for compute  : 8224 cycles

Commencing run for Attn_Xmap
Average utilization : 2.987263033175356 %
Cycles for compute  : 1056 cycles

Commencing run for Attn_Kmap
Average utilization : 2.987263033175356 %
Cycles for compute  : 1056 cycles

Commencing run for Attn_Qmap
Average utilization : 2.987263033175356 %
Cycles for compute  : 1056 cycles

Commencing run for Attn_QxK'
Average utilization : 1.3727678571428572 %
Cycles for compute  : 160 cycles

Commencing run for Attn_SFMXxV
Average utilization : 2.2110849056603774 %
Cycles for compute  : 160 cycles

Commencing run for Attn_Concat_map
Average utilization : 3.1073285297336737 %
Cycles for compute  : 8224 cycles

Commencing run for Attn_Xmap
Average utilization : 2.987263033175356 %
Cycles for compute  : 1056 cycles

Commencing run for Attn_Kmap
Average utilization : 2.987263033175356 %
Cycles for compute  : 1056 cycles

Commencing run for Attn_Qmap
Average utilization : 2.987263033175356 %
Cycles for compute  : 1056 cycles

Commencing run for Attn_QxK'
[...]
31778082 | HMC-13 | start reducing for flow 5 (from NI 0) to parent HMC-9 (to NI 0) at timestep 13
31778082 | HMC-9 | start reducing for flow 6 (from NI 0) to parent HMC-5 (to NI 0) at timestep 13
31778082 | HMC-1 | start reducing for flow 4 (from NI 0) to parent HMC-0 (to NI 0) at timestep 13
31778082 | HMC-5 | start reducing for flow 10 (from NI 0) to parent HMC-6 (to NI 0) at timestep 13
31778082 | HMC-4 | start reducing for flow 12 (from NI 0) to parent HMC-8 (to NI 0) at timestep 13
31778082 | HMC-12 | start reducing for flow 9 (from NI 0) to parent HMC-13 (to NI 0) at timestep 13
31778082 | HMC-6 | start reducing for flow 14 (from NI 0) to parent HMC-10 (to NI 0) at timestep 13
31778082 | HMC-15 | start reducing for flow 7 (from NI 0) to parent HMC-11 (to NI 0) at timestep 13
31778082 | HMC-3 | start reducing for flow 1 (from NI 0) to parent HMC-2 (to NI 0) at timestep 13
31778082 | HMC-8 | start reducing for flow 13 (from NI 0) to parent HMC-12 (to NI 0) at timestep 13
31778082 | HMC-7 | start reducing for flow 2 (from NI 0) to parent HMC-3 (to NI 0) at timestep 13
31778082 | HMC-11 | start reducing for flow 3 (from NI 0) to parent HMC-7 (to NI 0) at timestep 13
33062457 | HMC-10 | finishes reducing for flow 15 (from NI 0) to parent HMC-14 (to NI 0) at timestep 13
33062457 | HMC-11 | finishes reducing for flow 3 (from NI 0) to parent HMC-7 (to NI 0) at timestep 13
33062457 | HMC-0 | finishes reducing for flow 8 (from NI 0) to parent HMC-4 (to NI 0) at timestep 13
33062457 | HMC-13 | finishes reducing for flow 5 (from NI 0) to parent HMC-9 (to NI 0) at timestep 13
33062457 | HMC-9 | finishes reducing for flow 6 (from NI 0) to parent HMC-5 (to NI 0) at timestep 13
33062457 | HMC-5 | finishes reducing for flow 10 (from NI 0) to parent HMC-6 (to NI 0) at timestep 13
33062457 | HMC-7 | finishes reducing for flow 2 (from NI 0) to parent HMC-3 (to NI 0) at timestep 13
33062457 | HMC-4 | finishes reducing for flow 12 (from NI 0) to parent HMC-8 (to NI 0) at timestep 13
33062457 | HMC-12 | finishes reducing for flow 9 (from NI 0) to parent HMC-13 (to NI 0) at timestep 13
33062457 | HMC-6 | finishes reducing for flow 14 (from NI 0) to parent HMC-10 (to NI 0) at timestep 13
33062457 | HMC-15 | finishes reducing for flow 7 (from NI 0) to parent HMC-11 (to NI 0) at timestep 13
33062457 | HMC-8 | finishes reducing for flow 13 (from NI 0) to parent HMC-12 (to NI 0) at timestep 13
33062457 | HMC-1 | finishes reducing for flow 4 (from NI 0) to parent HMC-0 (to NI 0) at timestep 13
33062457 | HMC-3 | finishes reducing for flow 1 (from NI 0) to parent HMC-2 (to NI 0) at timestep 13
33062458 | HMC-14 | finishes reducing for flow 11 (from NI 0) to parent HMC-15 (to NI 0) at timestep 13
33062458 | HMC-2 | finishes reducing for flow 0 (from NI 0) to parent HMC-1 (to NI 0) at timestep 13
33063511 | HMC-14 | receives full reduce for flow 15 from child HMC-10
33063511 | HMC-2 | receives full reduce for flow 1 from child HMC-3
33063511 | HMC-10 | receives full reduce for flow 14 from child HMC-6
33063511 | HMC-11 | receives full reduce for flow 7 from child HMC-15
33063511 | HMC-0 | receives full reduce for flow 4 from child HMC-1
33063511 | HMC-13 | receives full reduce for flow 9 from child HMC-12
33063511 | HMC-9 | receives full reduce for flow 5 from child HMC-13
33063511 | HMC-5 | receives full reduce for flow 6 from child HMC-9
33063511 | HMC-7 | receives full reduce for flow 3 from child HMC-11
33063511 | HMC-4 | receives full reduce for flow 8 from child HMC-0
33063511 | HMC-12 | receives full reduce for flow 13 from child HMC-8
33063511 | HMC-6 | receives full reduce for flow 10 from child HMC-5
33063511 | HMC-15 | receives full reduce for flow 11 from child HMC-14
33063511 | HMC-8 | receives full reduce for flow 12 from child HMC-4
33063511 | HMC-1 | receives full reduce for flow 0 from child HMC-2
33063511 | HMC-3 | receives full reduce for flow 2 from child HMC-7
33063512 | HMC-14 | starts aggregation, computation state: aggregating, communication state: reduce-scatter
33063512 | HMC-2 | starts aggregation, computation state: aggregating, communication state: reduce-scatter
33063512 | HMC-10 | starts aggregation, computation state: aggregating, communication state: reduce-scatter
33063512 | HMC-0 | starts aggregation, computation state: aggregating, communication state: reduce-scatter
33063512 | HMC-13 | starts aggregation, computation state: aggregating, communication state: reduce-scatter
33063512 | HMC-9 | starts aggregation, computation state: aggregating, communication state: reduce-scatter
33063512 | HMC-1 | starts aggregation, computation state: aggregating, communication state: reduce-scatter
33063512 | HMC-5 | starts aggregation, computation state: aggregating, communication state: reduce-scatter
33063512 | HMC-4 | starts aggregation, computation state: aggregating, communication state: reduce-scatter
33063512 | HMC-12 | starts aggregation, computation state: aggregating, communication state: reduce-scatter
33063512 | HMC-6 | starts aggregation, computation state: aggregating, communication state: reduce-scatter
33063512 | HMC-15 | starts aggregation, computation state: aggregating, communication state: reduce-scatter
33063512 | HMC-3 | starts aggregation, computation state: aggregating, communication state: reduce-scatter
33063512 | HMC-8 | starts aggregation, computation state: aggregating, communication state: reduce-scatter
33063512 | HMC-7 | starts aggregation, computation state: aggregating, communication state: reduce-scatter
33063512 | HMC-11 | starts aggregation, computation state: aggregating, communication state: reduce-scatter
33214728 | HMC-14 | clear pending aggregation for flow 15 from child HMC-10
33214728 | HMC-14 | finishes aggregation , computation state: idle, communication state: reduce-scatter
33214728 | HMC-2 | clear pending aggregation for flow 1 from child HMC-3
33214728 | HMC-2 | finishes aggregation , computation state: idle, communication state: reduce-scatter
33214728 | HMC-10 | clear pending aggregation for flow 14 from child HMC-6
33214728 | HMC-10 | finishes aggregation , computation state: idle, communication state: reduce-scatter
33214728 | HMC-11 | clear pending aggregation for flow 7 from child HMC-15
33214728 | HMC-11 | finishes aggregation , computation state: idle, communication state: reduce-scatter
33214728 | HMC-0 | clear pending aggregation for flow 4 from child HMC-1
33214728 | HMC-0 | finishes aggregation , computation state: idle, communication state: reduce-scatter
33214728 | HMC-13 | clear pending aggregation for flow 9 from child HMC-12
33214728 | HMC-13 | finishes aggregation , computation state: idle, communication state: reduce-scatter
33214728 | HMC-9 | clear pending aggregation for flow 5 from child HMC-13
33214728 | HMC-9 | finishes aggregation , computation state: idle, communication state: reduce-scatter
33214728 | HMC-5 | clear pending aggregation for flow 6 from child HMC-9
33214728 | HMC-5 | finishes aggregation , computation state: idle, communication state: reduce-scatter
33214728 | HMC-7 | clear pending aggregation for flow 3 from child HMC-11
33214728 | HMC-7 | finishes aggregation , computation state: idle, communication state: reduce-scatter
33214728 | HMC-4 | clear pending aggregation for flow 8 from child HMC-0
33214728 | HMC-4 | finishes aggregation , computation state: idle, communication state: reduce-scatter
33214728 | HMC-12 | clear pending aggregation for flow 13 from child HMC-8
33214728 | HMC-12 | finishes aggregation , computation state: idle, communication state: reduce-scatter
33214728 | HMC-6 | clear pending aggregation for flow 10 from child HMC-5
33214728 | HMC-6 | finishes aggregation , computation state: idle, communication state: reduce-scatter
33214728 | HMC-15 | clear pending aggregation for flow 11 from child HMC-14
33214728 | HMC-15 | finishes aggregation , computation state: idle, communication state: reduce-scatter
33214728 | HMC-8 | clear pending aggregation for flow 12 from child HMC-4
33214728 | HMC-8 | finishes aggregation , computation state: idle, communication state: reduce-scatter
33214728 | HMC-1 | clear pending aggregation for flow 0 from child HMC-2
33214728 | HMC-1 | finishes aggregation , computation state: idle, communication state: reduce-scatter
33214728 | HMC-3 | clear pending aggregation for flow 2 from child HMC-7
33214728 | HMC-3 | finishes aggregation , computation state: idle, communication state: reduce-scatter
33214729 | HMC-14 | start reducing for flow 15 (from NI 0) to parent HMC-15 (to NI 0) at timestep 14
33214729 | HMC-2 | start reducing for flow 1 (from NI 0) to parent HMC-1 (to NI 0) at timestep 14
33214729 | HMC-10 | start reducing for flow 14 (from NI 0) to parent HMC-14 (to NI 0) at timestep 14
33214729 | HMC-0 | start reducing for flow 4 (from NI 0) to parent HMC-4 (to NI 0) at timestep 14
33214729 | HMC-13 | start reducing for flow 9 (from NI 0) to parent HMC-9 (to NI 0) at timestep 14
33214729 | HMC-9 | start reducing for flow 5 (from NI 0) to parent HMC-5 (to NI 0) at timestep 14
33214729 | HMC-1 | start reducing for flow 0 (from NI 0) to parent HMC-0 (to NI 0) at timestep 14
33214729 | HMC-5 | start reducing for flow 6 (from NI 0) to parent HMC-6 (to NI 0) at timestep 14
33214729 | HMC-4 | start reducing for flow 8 (from NI 0) to parent HMC-8 (to NI 0) at timestep 14
33214729 | HMC-12 | start reducing for flow 13 (from NI 0) to parent HMC-13 (to NI 0) at timestep 14
33214729 | HMC-6 | start reducing for flow 10 (from NI 0) to parent HMC-10 (to NI 0) at timestep 14
33214729 | HMC-15 | start reducing for flow 11 (from NI 0) to parent HMC-11 (to NI 0) at timestep 14
33214729 | HMC-3 | start reducing for flow 2 (from NI 0) to parent HMC-2 (to NI 0) at timestep 14
33214729 | HMC-8 | start reducing for flow 12 (from NI 0) to parent HMC-12 (to NI 0) at timestep 14
33214729 | HMC-7 | start reducing for flow 3 (from NI 0) to parent HMC-3 (to NI 0) at timestep 14
33214729 | HMC-11 | start reducing for flow 7 (from NI 0) to parent HMC-7 (to NI 0) at timestep 14
34499104 | HMC-10 | finishes reducing for flow 14 (from NI 0) to parent HMC-14 (to NI 0) at timestep 14
34499104 | HMC-11 | finishes reducing for flow 7 (from NI 0) to parent HMC-7 (to NI 0) at timestep 14
34499104 | HMC-0 | finishes reducing for flow 4 (from NI 0) to parent HMC-4 (to NI 0) at timestep 14
34499104 | HMC-13 | finishes reducing for flow 9 (from NI 0) to parent HMC-9 (to NI 0) at timestep 14
34499104 | HMC-9 | finishes reducing for flow 5 (from NI 0) to parent HMC-5 (to NI 0) at timestep 14
34499104 | HMC-5 | finishes reducing for flow 6 (from NI 0) to parent HMC-6 (to NI 0) at timestep 14
34499104 | HMC-7 | finishes reducing for flow 3 (from NI 0) to parent HMC-3 (to NI 0) at timestep 14
34499104 | HMC-4 | finishes reducing for flow 8 (from NI 0) to parent HMC-8 (to NI 0) at timestep 14
34499104 | HMC-12 | finishes reducing for flow 13 (from NI 0) to parent HMC-13 (to NI 0) at timestep 14
34499104 | HMC-6 | finishes reducing for flow 10 (from NI 0) to parent HMC-10 (to NI 0) at timestep 14
34499104 | HMC-15 | finishes reducing for flow 11 (from NI 0) to parent HMC-11 (to NI 0) at timestep 14
34499104 | HMC-8 | finishes reducing for flow 12 (from NI 0) to parent HMC-12 (to NI 0) at timestep 14
34499104 | HMC-1 | finishes reducing for flow 0 (from NI 0) to parent HMC-0 (to NI 0) at timestep 14
34499104 | HMC-3 | finishes reducing for flow 2 (from NI 0) to parent HMC-2 (to NI 0) at timestep 14
34499105 | HMC-14 | finishes reducing for flow 15 (from NI 0) to parent HMC-15 (to NI 0) at timestep 14
34499105 | HMC-2 | finishes reducing for flow 1 (from NI 0) to parent HMC-1 (to NI 0) at timestep 14
34500158 | HMC-14 | receives full reduce for flow 14 from child HMC-10
34500158 | HMC-2 | receives full reduce for flow 2 from child HMC-3
34500158 | HMC-10 | receives full reduce for flow 10 from child HMC-6
34500158 | HMC-11 | receives full reduce for flow 11 from child HMC-15
34500158 | HMC-0 | receives full reduce for flow 0 from child HMC-1
34500158 | HMC-13 | receives full reduce for flow 13 from child HMC-12
34500158 | HMC-9 | receives full reduce for flow 9 from child HMC-13
34500158 | HMC-5 | receives full reduce for flow 5 from child HMC-9
34500158 | HMC-7 | receives full reduce for flow 7 from child HMC-11
34500158 | HMC-4 | receives full reduce for flow 4 from child HMC-0
34500158 | HMC-12 | receives full reduce for flow 12 from child HMC-8
34500158 | HMC-6 | receives full reduce for flow 6 from child HMC-5
34500158 | HMC-15 | receives full reduce for flow 15 from child HMC-14
34500158 | HMC-8 | receives full reduce for flow 8 from child HMC-4
34500158 | HMC-1 | receives full reduce for flow 1 from child HMC-2
34500158 | HMC-3 | receives full reduce for flow 3 from child HMC-7
34500159 | HMC-14 | starts aggregation, computation state: aggregating, communication state: reduce-scatter
34500159 | HMC-2 | starts aggregation, computation state: aggregating, communication state: reduce-scatter
34500159 | HMC-10 | starts aggregation, computation state: aggregating, communication state: reduce-scatter
34500159 | HMC-0 | starts aggregation, computation state: aggregating, communication state: reduce-scatter
34500159 | HMC-13 | starts aggregation, computation state: aggregating, communication state: reduce-scatter
34500159 | HMC-9 | starts aggregation, computation state: aggregating, communication state: reduce-scatter
34500159 | HMC-1 | starts aggregation, computation state: aggregating, communication state: reduce-scatter
34500159 | HMC-5 | starts aggregation, computation state: aggregating, communication state: reduce-scatter
34500159 | HMC-4 | starts aggregation, computation state: aggregating, communication state: reduce-scatter
34500159 | HMC-12 | starts aggregation, computation state: aggregating, communication state: reduce-scatter
34500159 | HMC-6 | starts aggregation, computation state: aggregating, communication state: reduce-scatter
34500159 | HMC-15 | starts aggregation, computation state: aggregating, communication state: reduce-scatter
34500159 | HMC-3 | starts aggregation, computation state: aggregating, communication state: reduce-scatter
34500159 | HMC-8 | starts aggregation, computation state: aggregating, communication state: reduce-scatter
34500159 | HMC-7 | starts aggregation, computation state: aggregating, communication state: reduce-scatter
34500159 | HMC-11 | starts aggregation, computation state: aggregating, communication state: reduce-scatter
34651375 | HMC-14 | clear pending aggregation for flow 14 from child HMC-10
34651375 | HMC-14 | finishes aggregation , computation state: idle, communication state: reduce-scatter
34651375 | HMC-2 | clear pending aggregation for flow 2 from child HMC-3
34651375 | HMC-2 | finishes aggregation , computation state: idle, communication state: reduce-scatter
34651375 | HMC-10 | clear pending aggregation for flow 10 from child HMC-6
34651375 | HMC-10 | finishes aggregation , computation state: idle, communication state: reduce-scatter
34651375 | HMC-11 | clear pending aggregation for flow 11 from child HMC-15
34651375 | HMC-11 | finishes aggregation , computation state: idle, communication state: reduce-scatter
34651375 | HMC-0 | clear pending aggregation for flow 0 from child HMC-1
34651375 | HMC-0 | finishes aggregation , computation state: idle, communication state: reduce-scatter
34651375 | HMC-13 | clear pending aggregation for flow 13 from child HMC-12
34651375 | HMC-13 | finishes aggregation , computation state: idle, communication state: reduce-scatter
34651375 | HMC-9 | clear pending aggregation for flow 9 from child HMC-13
34651375 | HMC-9 | finishes aggregation , computation state: idle, communication state: reduce-scatter
34651375 | HMC-5 | clear pending aggregation for flow 5 from child HMC-9
34651375 | HMC-5 | finishes aggregation , computation state: idle, communication state: reduce-scatter
34651375 | HMC-7 | clear pending aggregation for flow 7 from child HMC-11
34651375 | HMC-7 | finishes aggregation , computation state: idle, communication state: reduce-scatter
34651375 | HMC-4 | clear pending aggregation for flow 4 from child HMC-0
34651375 | HMC-4 | finishes aggregation , computation state: idle, communication state: reduce-scatter
34651375 | HMC-12 | clear pending aggregation for flow 12 from child HMC-8
34651375 | HMC-12 | finishes aggregation , computation state: idle, communication state: reduce-scatter
34651375 | HMC-6 | clear pending aggregation for flow 6 from child HMC-5
34651375 | HMC-6 | finishes aggregation , computation state: idle, communication state: reduce-scatter
34651375 | HMC-15 | clear pending aggregation for flow 15 from child HMC-14
34651375 | HMC-15 | finishes aggregation , computation state: idle, communication state: reduce-scatter
34651375 | HMC-8 | clear pending aggregation for flow 8 from child HMC-4
34651375 | HMC-8 | finishes aggregation , computation state: idle, communication state: reduce-scatter
34651375 | HMC-1 | clear pending aggregation for flow 1 from child HMC-2
34651375 | HMC-1 | finishes aggregation , computation state: idle, communication state: reduce-scatter
34651375 | HMC-3 | clear pending aggregation for flow 3 from child HMC-7
34651375 | HMC-3 | finishes aggregation , computation state: idle, communication state: reduce-scatter
34651376 | HMC-14 | start all-gather (start in reduce-scatter)
34651376 | HMC-2 | start all-gather (start in reduce-scatter)
34651376 | HMC-10 | start all-gather (start in reduce-scatter)
34651376 | HMC-0 | start all-gather (start in reduce-scatter)
34651376 | HMC-13 | start all-gather (start in reduce-scatter)
34651376 | HMC-9 | start all-gather (start in reduce-scatter)
34651376 | HMC-1 | start all-gather (start in reduce-scatter)
34651376 | HMC-5 | start all-gather (start in reduce-scatter)
34651376 | HMC-4 | start all-gather (start in reduce-scatter)
34651376 | HMC-12 | start all-gather (start in reduce-scatter)
34651376 | HMC-6 | start all-gather (start in reduce-scatter)
34651376 | HMC-15 | start all-gather (start in reduce-scatter)
34651376 | HMC-3 | start all-gather (start in reduce-scatter)
34651376 | HMC-8 | start all-gather (start in reduce-scatter)
34651376 | HMC-7 | start all-gather (start in reduce-scatter)
34651376 | HMC-11 | start all-gather (start in reduce-scatter)
34651377 | HMC-14 | start gathering for flow 14 (from NI 0) to child HMC-10 (to NI 0) at timestep 16
34651377 | HMC-2 | start gathering for flow 2 (from NI 0) to child HMC-3 (to NI 0) at timestep 16
34651377 | HMC-10 | start gathering for flow 10 (from NI 0) to child HMC-6 (to NI 0) at timestep 16
34651377 | HMC-11 | start gathering for flow 11 (from NI 0) to child HMC-15 (to NI 0) at timestep 16
34651377 | HMC-0 | start gathering for flow 0 (from NI 0) to child HMC-1 (to NI 0) at timestep 16
34651377 | HMC-13 | start gathering for flow 13 (from NI 0) to child HMC-12 (to NI 0) at timestep 16
34651377 | HMC-9 | start gathering for flow 9 (from NI 0) to child HMC-13 (to NI 0) at timestep 16
34651377 | HMC-5 | start gathering for flow 5 (from NI 0) to child HMC-9 (to NI 0) at timestep 16
34651377 | HMC-7 | start gathering for flow 7 (from NI 0) to child HMC-11 (to NI 0) at timestep 16
34651377 | HMC-4 | start gathering for flow 4 (from NI 0) to child HMC-0 (to NI 0) at timestep 16
34651377 | HMC-12 | start gathering for flow 12 (from NI 0) to child HMC-8 (to NI 0) at timestep 16
34651377 | HMC-6 | start gathering for flow 6 (from NI 0) to child HMC-5 (to NI 0) at timestep 16
34651377 | HMC-15 | start gathering for flow 15 (from NI 0) to child HMC-14 (to NI 0) at timestep 16
34651377 | HMC-8 | start gathering for flow 8 (from NI 0) to child HMC-4 (to NI 0) at timestep 16
34651377 | HMC-1 | start gathering for flow 1 (from NI 0) to child HMC-2 (to NI 0) at timestep 16
34651377 | HMC-3 | start gathering for flow 3 (from NI 0) to child HMC-7 (to NI 0) at timestep 16
